! Engrad def2-TZVPPD wB97M-D3BJ 
%pal nprocs 8 end%pal nprocs 64 end 
%tddft 
 Iroot 1 Nroots 3 
sf true 
end 
*xyz 0 3 
O   1.32959496 0.65291601 0.53504113
C   0.07624566 0.39850462 0.20217002
C   -0.18152949 -0.96225916 -0.51002818
H   -0.29158126 1.14164866 -0.6311675
H   -0.64522935 0.58977493 1.12047316
H   -0.95474243 -0.84863052 -1.202659
H   0.62346661 -1.62215391 -0.91266429
*
