! Engrad def2-TZVPPD wB97M-D3BJ 
%pal nprocs 8 end%pal nprocs 32 end 
%tddft Nroots 2 Iroot 1 
sf true 
end 
*xyz 0 3 
O   0.34220078 1.14977484 0.13515732
C   0.53993301 -0.19361352 -0.01505828
C   -0.73040695 -0.97561081 -0.11471483
H   1.21129358 -0.72360808 0.7268026
H   1.10944054 -0.36324327 -1.00639172
H   -1.56911262 -0.31982023 -0.40347076
H   -0.77743983 -1.99211968 0.07424226
*
