! Engrad def2-TZVPPD wB97M-D3BJ 
%pal nprocs 8 end%pal nprocs 32 end 
%tddft Nroots 2 Iroot 1 
sf true 
end 
*xyz 0 3 
O   -0.21269535 0.91047059 -0.61133757
C   0.64215791 0.06700615 0.11221319
C   -0.28390903 -1.03837276 0.58425812
H   1.20474893 0.60595506 0.86262316
H   1.32989753 -0.39866615 -0.5323674
H   -1.20783372 -0.81601938 0.99189375
H   -0.25196755 -2.01144013 0.09574221
*
