! Engrad def2-TZVPPD wB97M-D3BJ 
%pal nprocs 8 end%pal nprocs 64 end 
 %tddft nroots 2 Iroot 2 
sf true 
end 
*xyz 0 3 
O   2.33554392534353 -0.32100668490579 -1.14989578568995
O   -0.16572505216823 2.83065021888886 -2.24696709680022
O   0.20615564064916 -3.79397392640348 0.79024124423859
O   -2.11167964840999 -1.06880181013145 -1.42940611196363
N   0.3957749226555 -1.88618396311114 2.00579998191471
N   -1.37592305305248 -0.19122652761066 0.51507409848493
N   1.07175848549176 -1.94832974832784 -0.21829058312442
N   -0.77121927795639 0.73885773165752 -1.59912638317491
C   1.39984714101003 0.13855494375032 0.97345423283811
C   -0.34879012994171 2.72803941547335 -0.08807181208693
C   0.5897668597483 -0.47414338889895 2.06944252954147
C   -0.39404799483104 0.40761767140037 1.313177279626
C   2.28797968026987 1.31133607458169 1.22730309605918
C   -1.6031761433712 3.38685791123246 0.31821791717461
C   1.65328765899926 -0.68933062496594 -0.22265875327943
C   -0.44334626052385 2.05014731549922 -1.34253217023944
C   0.5249958907301 -2.63106572464735 0.86505865979088
C   -1.46626401911804 -0.22052099727547 -0.86139078296298
H   0.83333054555906 -0.14741840746004 3.0715435934969
H   -0.52965774320672 1.40483165242676 1.69856012291948
H   2.41937413539734 1.89406850979718 0.32271502176116
H   1.86338768261108 1.95759101629029 1.99137954198079
H   3.26453225516124 0.96392779767477 1.56726867851547
H   -2.5071104505058 2.78266174764506 0.19550561438082
H   -1.55807005028456 3.84015648920421 1.30410281430683
H   -1.68236291492605 4.20182701288791 -0.41536298406258
H   -0.03155502046154 -2.37003176124624 2.77461091467478
H   -1.83819529357457 -1.00131398107865 0.90100178917675
H   1.22667639421597 -2.51466639465989 -1.03744327968005
H   -0.79268816551009 0.53588843231287 -2.58871138781689
*
