7
Coordinates from ORCA-job orca E -153.931935770082
  O           0.53703281507079      1.35039874059435      0.09010782165612
  C           0.55570301028334      0.20110720649977     -0.26228387039177
  C          -0.42878675800533     -0.82826571637301      0.20803921737875
  H           0.10449313691587     -1.64988589548246      0.68814100727754
  H           1.32595593178614     -0.15472677996690     -0.97283964157228
  H          -0.95275815606860     -1.25059618260523     -0.65052257180410
  H          -1.13943997998220     -0.38643137266652      0.89935803745575
