! Engrad def2-TZVPPD wB97M-D3BJ 
%pal nprocs 8 end%pal nprocs 32 end 
%tddft Nroots 2 Iroot 1 
sf true 
end 
*xyz 0 3 
O   0.11567004 0.89428153 -0.00156514
C   0.68378396 -0.4042051 -0.00031214
C   -0.7541319 -0.59145866 0.00146585
H   1.25419177 -0.59933776 0.91040502
H   1.24010403 -0.59594212 -0.91953595
H   -1.26710915 -0.68727505 -0.923988
H   -1.26824902 -0.64398252 0.93439171
*
