7
Coordinates from ORCA-job orca E -153.928824592744
  O           1.01938759387724      1.17589305844042     -0.07019459730579
  C           0.88932630422145      0.03801817430623      0.30850200961814
  C          -0.30965188352343     -0.71175631970393     -0.21663192713744
  H           1.59649179832440     -0.44665548331832      1.00025459203701
  H           0.00386149166477     -1.60854484928809     -0.75401704323402
  H          -0.86552200448916     -0.05404969106610     -0.87432706680187
  H          -0.94276217548356     -1.04793605889702      0.60641403282397
