30
Coordinates from ORCA-job orca E -908.766907991438
  O           2.66867408512503     -0.17161397882415     -1.37280279524632
  O          -0.78747103189295      2.35504832938729     -2.03820429462595
  O           0.40307388179722     -3.23470298468466      0.89534074101470
  O          -2.26291322931802     -1.87979637281146     -1.35578729171053
  N           0.54505974557896     -1.16777901288636      1.84173016376032
  N          -1.94632243580385     -0.56111346266986      0.46645497441393
  N           1.05891126570736     -1.47240137589738     -0.40900211972703
  N          -1.43310425499419      0.20923327138976     -1.67153009880778
  C           1.65714873207320      0.59322878592739      0.62724327219961
  C          -1.01101192538622      1.64905065809545      0.20753048567576
  C           0.40417427536447      0.20226640228972      1.57027579115149
  C          -1.30598033296517      0.54668355147382      1.08723473229201
  C           2.66368952336413      1.54462597370056      1.13582357307825
  C          -0.78298837583474      3.00684373762321      0.73403455161939
  C           1.86794358431706     -0.29797912221149     -0.46194475847543
  C          -1.04302865406115      1.46587947933567     -1.25542616601448
  C           0.65665884706501     -2.06072790393536      0.77268487571105
  C          -1.89879974150425     -0.83400834292109     -0.87865643156367
  H           0.47056443992146      0.78170506266991      2.48664199641571
  H          -1.79188441322289      0.82661315199952      2.01701310399197
  H           3.51486079996894      1.57404745563319      0.46090443928204
  H           2.25826803311895      2.55697453288113      1.23044849978181
  H           3.01750045932208      1.25414415318679      2.13177300906183
  H          -1.74952950621134      3.50632759763951      0.86433419650502
  H          -0.30094446636972      2.98134549193389      1.71034424266750
  H          -0.19890929576536      3.59323318896897      0.03242942036691
  H           0.16804062090739     -1.59393772898402      2.67316874083319
  H          -2.17561232277437     -1.36534303413665      1.02454258671465
  H           1.22071279003687     -2.12685181948150     -1.15854269093613
  H          -1.43418109756392      0.03400431530816     -2.66345674942984
