! Engrad def2-TZVPPD wB97M-D3BJ 
%pal nprocs 8 end%pal nprocs 64 end 
%tddft 
Iroot 3 Nroots 3 
sf true 
end 
*xyz 0 3 
O   2.741822041553462 1.0066420615562444 -0.5793522141619738
O   -0.5553230467023189 0.9845490774257587 -2.3354510756056874
O   0.5116199086674353 -2.855959181761223 -1.2119186343692983
O   -2.800157856073363 -1.535406109033391 0.5953214569888527
N   0.4833533758883673 -1.9146159827558895 0.7997945817440625
N   -2.0202255080373215 0.3753629058838975 1.316230404077555
N   1.635586143534244 -0.925958060929473 -0.8684831949218491
N   -1.6155779856336008 -0.2949311239069703 -0.833852388871468
C   1.4761066855057743 0.21486326495635966 1.1579139803658094
C   -0.7238117044644797 1.740991760009047 -0.12261172901063151
C   0.6746031273757985 -0.8119261428428604 1.5893429473301808
C   -1.1220924570611661 1.3636334270728692 1.1346065504699807
C   1.9409098764804733 1.2083764024958576 2.0717441973191866
C   -0.3717211873127815 3.0906262766661965 -0.39615765611602033
C   2.02197830268015 0.15509414285389012 -0.14962888192435497
C   -0.9330053919570139 0.8272555573939598 -1.208801846903862
C   0.8509225660677656 -1.9630085917771174 -0.49215937017667394
C   -2.1770141371127663 -0.5443100313716597 0.36950955591267004
H   0.5822267188178869 -1.019729587047608 2.640674122697773
H   -1.153750260189798 2.101919830206303 1.91189147949333
H   1.88995888759026 2.1928347573227547 1.6137293293280661
H   1.3965235996718324 1.286618585742525 3.013287136197152
H   2.9743942741111287 1.138562563864142 2.403970412702952
H   -1.2020777415752497 3.5174918075605293 -0.9603674139761383
H   -0.1338170036734174 3.7693599307247307 0.4131684350556818
H   0.48627420435242613 3.155568692383026 -1.0623640474693088
H   -0.16482689542615409 -2.627837911946832 1.0689991917855637
H   -2.4076903769508258 0.20069910234405192 2.2183472308900813
H   1.9155017932188716 -0.9418408148371556 -1.8343596166938756
H   -1.748089953345632 -0.9799266082520274 -1.5584229421577522
*
