7
Coordinates from ORCA-job orca E -153.887372313637
  O          -0.03365194313818      0.76696468110619     -0.00002999170950
  C           0.75105332758543     -0.46124000095452     -0.00000051001832
  C          -0.73453590961023     -0.41012100611518      0.00001493199212
  H           1.27577641437743     -0.65396348809582      0.92401243436493
  H           1.27574811731763     -0.65415053941750     -0.92399482153356
  H          -1.26607805254104     -0.65292023571180     -0.91479980631883
  H          -1.26611195399103     -0.65296941081136      0.91479776322315
