! Engrad def2-TZVPPD wB97M-D3BJ 
%pal nprocs 8 end%pal nprocs 32 end 
%tddft Nroots 2 Iroot 1 
sf true 
end 
*xyz 0 3 
O   0.51987566 1.18624599 -0.01295612
C   0.47646483 -0.27553639 -0.00835827
C   -0.83069977 -0.97280844 0.02099375
H   1.01660062 -0.6044003 0.8352974
H   1.01372272 -0.6108691 -0.87707656
H   -1.43716386 -0.76895738 -0.85622837
H   -1.41689655 -1.02680527 0.9338526
*
