7
Coordinates from ORCA-job orca E -153.929923316490
  O           1.12393374120777      1.13064428525052      0.09719327131911
  C           0.90254996171279      0.01642031031008     -0.30555037648228
  C          -0.31679895492730     -0.69488608389984      0.21907426896154
  H          -0.03108142650819     -1.62725418784040      0.70904979619382
  H           1.55707680039775     -0.48814738937879     -1.03536242478991
  H          -0.98176070560939     -0.96523738347083     -0.60291906808713
  H          -0.82883423496591     -0.04399183163406      0.91851453288486
