! Engrad def2-TZVPPD wB97M-D3BJ 
%pal nprocs 8 end%pal nprocs 64 end 
%tddft 
 Iroot 1 Nroots 3 
sf true 
end 
*xyz 0 3 
O   3.14448923 -0.79386595 -1.92970308
O   -1.97238766 1.64430058 -1.5604776
O   -0.94753626 -2.78143723 -1.45665278
O   -3.11206062 0.91382194 2.68022854
N   -0.18006306 -1.51411137 0.22799102
N   -0.84904351 0.73884542 2.09030428
N   1.11494204 -1.79680188 -1.68604447
N   -2.52979779 0.91007975 0.50061817
C   2.09407744 -0.6319954 0.14822755
C   -0.1512267 1.44188249 -0.1022654
C   0.80453931 -0.68008317 0.94986429
C   0.21319865 0.74826627 1.10971272
C   3.26663412 0.0227466 0.68437972
C   0.86554552 1.90789933 -1.10461802
C   2.22492697 -1.1191707 -1.23633012
C   -1.57428979 1.36498811 -0.43775375
C   -0.07092738 -2.07687907 -0.99328923
C   -2.21614092 0.8718679 1.8411582
H   1.06244719 -0.9418682 1.94933988
H   1.06116371 1.29982999 1.59203599
H   3.19715172 0.31741221 1.70496389
H   4.05218069 -0.72872383 0.60121058
H   3.74530022 0.73950113 0.03067247
H   0.56519107 2.67560314 -1.79909053
H   1.69662383 2.30572157 -0.53657865
H   1.30171662 1.09943943 -1.7163639
H   -1.07278225 -1.5403925 0.74998086
H   -0.59518014 0.95974844 3.0897517
H   1.33669401 -2.23956616 -2.54733263
H   -3.45633064 1.17925032 0.2594171
*
