! Engrad def2-TZVPPD wB97M-D3BJ 
%pal nprocs 8 end%pal nprocs 64 end 
%tddft 
 Iroot 2 Nroots 3 
sf true 
end 
*xyz 0 3 
O   0.20218186 0.22055635 1.31366623
C   0.02893582 -0.23310832 -0.12941967
C   1.04459395 0.21240868 -1.10070582
H   -0.97965855 0.16556747 -0.27909155
H   -0.01364007 -1.28034021 -0.01416546
H   1.61664139 -0.58147595 -1.54720776
H   1.34784025 1.21838764 -1.20720126
*
