30
Coordinates from ORCA-job orca E -908.934838306214
  O           2.64523773022711      1.15266130241571     -0.61837382335691
  O          -0.52983588446591      0.84102181086981     -2.18020735485915
  O           0.56122537743638     -2.77618454640496     -1.52176886785250
  O          -2.47622713348434     -1.67666127535574      1.06108710355495
  N           0.69784741813777     -2.09425076515098      0.64550294384015
  N          -2.21904263999034      0.55873328664703      1.41238186456405
  N           1.73339565140837     -0.88375814115757     -1.02076057084717
  N          -1.58468835209241     -0.37633517889615     -0.58967475065571
  C           1.62711398679591      0.02980378875177      1.20372825797280
  C          -1.00544395208128      1.91956198391558     -0.11856240406902
  C           0.97241588258134     -1.08842388419446      1.54224215356064
  C          -1.66178888597573      1.76320237695778      1.03526271916899
  C           1.92265111075496      1.14330606271057      2.15535909486834
  C          -0.32665287538873      3.18332321602142     -0.53787811936032
  C           2.06085364983271      0.18261253578546     -0.18534779813714
  C          -1.00004767688909      0.80107162991031     -1.06547214157504
  C           0.97007922069346     -1.98438761909994     -0.70095357582865
  C          -2.12254908580787     -0.58782082721682      0.65783627396355
  H           0.61367277212841     -1.26358073187596      2.54538166533998
  H          -1.75286406871587      2.55890776807078      1.75887795225310
  H           1.46202044364079      2.06832092035831      1.81154583484345
  H           1.54854083430990      0.91145526875878      3.15011159405165
  H           2.99331700321030      1.32792185653675      2.21618290358741
  H          -0.74396631355832      3.55286537447881     -1.47227544189651
  H          -0.43120412701473      3.95071485782459      0.22585258000833
  H           0.73225972889844      2.99700516251556     -0.71137390294542
  H           0.04299571344888     -2.81817055832449      0.88879490184355
  H          -2.63275240578824      0.44268212774681      2.31942467296719
  H           1.88847911906209     -0.73709020354363     -2.00659840095556
  H          -1.53244224131395     -1.18350759905522     -1.19572536404906
