! Engrad def2-TZVPPD wB97M-D3BJ 
%pal nprocs 8 end%pal nprocs 64 end 
 %tddft nroots 2 Iroot 1 
sf true 
end 
*xyz 0 3 
O   2.40406225538586 -0.39898563022857 -1.11378638339951
O   -0.14314532101267 2.90664508746496 -2.18619040541275
O   0.18591879725652 -3.81651713769538 0.82474045170923
O   -2.04933457273832 -1.04079106670491 -1.51845444867158
N   0.40140935959884 -1.90483440743442 2.03125936444354
N   -1.36378419530722 -0.24509054061795 0.47806620609239
N   1.08934806325466 -1.98985068189719 -0.18681264817129
N   -0.74585610830641 0.79904873062446 -1.58849085042395
C   1.4797867367719 0.07595166428063 1.00912368290918
C   -0.42889524324 2.80768303276107 -0.06072553552474
C   0.5867581760097 -0.48809069186583 2.0693367668134
C   -0.43450249756403 0.35696995205533 1.31760102138624
C   2.32275374349576 1.28097064857516 1.2484490158566
C   -1.7033353117075 3.46193809914315 0.28535740567509
C   1.71005802374073 -0.74576152089204 -0.18440270044218
C   -0.45504190833058 2.111446973261 -1.30319923541868
C   0.52658335111431 -2.65883823634459 0.89480248968612
C   -1.4347382935657 -0.20436098113428 -0.90286998617828
H   0.8012312799113 -0.14848427444418 3.07477040802551
H   -0.52831027313474 1.38771875321233 1.61725172168748
H   2.48247225541805 1.82687380960735 0.32472784252296
H   1.84976807198275 1.94883330643959 1.96406887783667
H   3.29416076909349 0.98082213362701 1.645775281814
H   -2.59033488843431 2.83526078208542 0.14893354042564
H   -1.69775888168284 3.93368147136958 1.26322145113654
H   -1.78067876438879 4.25828368865564 -0.4678020070952
H   -0.04809691111719 -2.37386325215019 2.79673782537281
H   -1.78956341521013 -1.09829997131688 0.81053610920225
H   1.236964778878 -2.55904342707457 -1.00520665770124
H   -0.72529907617148 0.6156836866383 -2.58221860415635
*
