7
Coordinates from ORCA-job orca E -153.876068333117
  O           0.09349167617379      0.84458170186590     -0.00011266140249
  C           0.68755806055901     -0.38945859512878      0.00018436492125
  C          -0.72811759043473     -0.53091525705531     -0.00024818214001
  H           1.23708592703523     -0.65277952357479      0.90300739930370
  H           1.23667822704244     -0.65319719392649     -0.90284398464952
  H          -1.26256518308477     -0.66860617103325     -0.92554455951934
  H          -1.26193111729099     -0.66802496114728      0.92555762348641
