! Engrad def2-TZVPPD wB97M-D3BJ 
%pal nprocs 8 end%pal nprocs 64 end 
%tddft 
 Iroot 1 Nroots 3 
sf true 
end 
*xyz 0 3 
O   2.73103224 -0.95756807 -2.30454365
O   -2.26548846 1.32599629 -1.59346416
O   -0.8624316 -2.95993141 -0.63663071
O   -2.75668069 0.65947681 2.77861218
N   0.08700578 -1.33360523 0.61732769
N   -0.63779316 0.94208296 2.03315387
N   0.75938657 -1.6839611 -1.60878065
N   -2.40497916 0.45265255 0.55547036
C   2.21608938 -0.3143599 -0.11914402
C   -0.29630583 1.42364881 -0.29441138
C   1.0869507 -0.28780335 0.83449876
C   0.29012395 1.07534349 0.96577865
C   3.63145997 0.06900388 0.30083105
C   0.48557595 2.17403486 -1.31683258
C   1.93650862 -0.94858636 -1.40116106
C   -1.73918844 1.09120648 -0.50877724
C   -0.09268213 -2.02291958 -0.53385562
C   -1.98235305 0.72134912 1.86626046
H   1.57249824 -0.45297744 1.78851617
H   1.03603114 1.82468813 1.25569543
H   4.08051605 0.17109461 -0.59747118
H   3.80551794 0.91395803 1.01401832
H   3.99238577 -0.85570928 0.72662376
H   0.03188434 2.07718027 -2.29299118
H   0.49304968 3.20948834 -0.97463965
H   1.47197657 1.79677964 -1.29131561
H   -0.78300039 -1.48664938 1.13124637
H   -0.33903004 1.01578038 3.04763756
H   0.74486175 -2.25270019 -2.41843056
H   -3.38023301 0.43048984 0.39914069
*
