! Engrad def2-TZVPPD wB97M-D3BJ 
%pal nprocs 8 end%pal nprocs 64 end 
%tddft 
 Iroot 2 Nroots 3 
sf true 
end 
*xyz 0 3 
O   1.01395469 1.04050942 0.25499655
C   0.75682484 -0.26676649 -0.07908117
C   -0.66148212 -0.65394176 0.02260719
H   1.2661657 -0.93465753 0.63823112
H   1.14472335 -0.52712666 -1.08674069
H   -1.26276535 -1.14735368 -0.73388978
H   -1.23385512 -0.34379972 0.88778634
*
