! Engrad def2-TZVPPD wB97M-D3BJ 
%pal nprocs 8 end%pal nprocs 64 end 
%tddft 
 Iroot 1 Nroots 3 
sf true 
end 
*xyz 0 3 
O   3.14353656 0.68263982 -0.67308997
O   -0.47430496 1.3523391 -2.42315715
O   0.49374693 -3.10896667 -0.49072709
O   -2.9804935 -1.82545483 -0.23845071
N   0.1330536 -1.43594391 1.03564817
N   -2.1671624 -0.08993047 0.96284561
N   1.71319733 -1.15128343 -0.66875046
N   -1.65726287 -0.30135419 -1.35907228
C   1.53231447 0.50394541 1.06463947
C   -0.7181906 1.61633744 -0.00654701
C   0.26893163 -0.10359813 1.54506801
C   -1.1008477 0.78635544 1.16537634
C   2.16566116 1.51948494 2.00494346
C   -0.12283559 2.9384322 -0.11762604
C   2.22982282 0.03278085 -0.16791672
C   -0.97652688 0.97903392 -1.36730843
C   0.74662466 -2.0266534 -0.05068645
C   -2.33421457 -0.79560425 -0.17033672
H   0.24438489 -0.17231744 2.64849937
H   -1.37777991 1.41278653 2.00946369
H   2.64274427 0.89340879 2.71432052
H   2.91353347 2.13431263 1.49171859
H   1.40211554 2.16710993 2.44603911
H   -0.81204342 3.56202921 -0.74191271
H   -0.05662313 3.48911371 0.8542454
H   0.85577472 2.87957689 -0.56625293
H   -0.68143772 -1.97732771 1.28213122
H   -2.9326313 -0.19228495 1.66182874
H   1.92414759 -1.30668322 -1.66752849
H   -1.70464836 -0.84807959 -2.22911548
*
