! Engrad def2-TZVPPD wB97M-D3BJ 
%pal nprocs 8 end%pal nprocs 64 end 
%tddft 
 Iroot 1 Nroots 3 
sf true 
end 
*xyz 0 3 
O   -0.34975013 -0.37344858 0.77959869
C   0.40117358 0.61556435 0.12287358
C   1.24974407 -0.04918936 -0.78308433
H   0.89671363 1.09733758 1.09733295
H   -0.1760517 1.39893289 -0.41687079
H   1.7416213 -0.82388832 -0.27550697
H   1.44691642 0.2173961 -1.79199941
*
