! Engrad wB97M-D3BJ def2-TZVPPD 
%pal nprocs 8 end%pal nprocs 16 end 
%tddft nroots 2 Iroot 1
 sf true 
end 
*xyz 0 3 
O   1.25384958051786 1.09380335603985 -0.09841657136497
C   0.92176425875409 0.00123015689938 0.27936527960018
C   -0.31919888863592 -0.68195634111119 -0.21671482781771
H   1.53000999167799 -0.54998292679385 1.02012721497148
H   -0.05483411460215 -1.63608645923187 -0.67476693810093
H   -0.83186892668512 -0.0498654130222 -0.93446129124662
H   -0.9757238621346 -0.90719162899993 0.62486713395857
*
