! Engrad def2-TZVPPD wB97M-D3BJ 
%pal nprocs 8 end%pal nprocs 64 end 
%tddft 
 Iroot 1 Nroots 3 
sf true 
end 
*xyz 0 3 
O   1.20212478 -0.82238306 0.22494885
C   0.41515961 0.32786121 0.52123852
C   -0.49264393 0.75379551 -0.55252039
H   1.1398814 1.11542927 0.70098211
H   -0.18764754 0.06411814 1.41106474
H   -0.37376331 1.76601725 -1.13744765
H   -1.27650669 0.11622808 -0.96536024
*
