! EnGrad wB97M-D3BJ def2-TZVPPD 
%pal nprocs 8 end%pal nprocs 16 end 
%tddft 
 sf true 
 nroots 2 Iroot 1 end 
*xyz 0 3 
O   0.2693470726941 0.96736229908698 -0.0018660401712
C   0.64200301958544 -0.32203521038668 -0.00043342514688
C   -0.73613291055595 -0.67336616741649 0.00038564263604
H   1.19922290101557 -0.64073941703812 0.88877939729654
H   1.19984998002432 -0.64227864277951 -0.88862605181138
H   -1.2867860352131 -0.70527062640848 -0.92637869175678
H   -1.28530402755038 -0.70207223505769 0.92813916895367
*
