! Engrad wB97M-D3BJ def2-TZVPPD 
%pal nprocs 8 end%pal nprocs 16 end 
%tddft nroots 2 Iroot 2
 sf true 
end 
*xyz 0 3 
O   1.52508393033725 1.00398059756183 -0.04607335551675
C   0.94979011601866 -0.01012710005958 0.23440689102375
C   -0.30714874630042 -0.67352274373853 -0.23620211418993
H   1.41868060528999 -0.64289397703452 1.02408301008827
H   -0.03953863468452 -1.66651528320724 -0.59684177928896
H   -0.83299590460655 -0.12161479211504 -1.01138734533138
H   -0.9517260119509 -0.80948062848876 0.63201469321499
*
