7
Coordinates from ORCA-job orca E -153.847218845384
  O           0.20266276353967      0.92264371805445     -0.00105837106547
  C           0.65635554424591     -0.34629192746934     -0.00019188293651
  C          -0.73237714182106     -0.62863252166032      0.00025816074968
  H           1.21331827647401     -0.64591355008465      0.89301983803466
  H           1.21338990883480     -0.64669461661075     -0.89306328561898
  H          -1.27588984713774     -0.68799401089296     -0.92783060607448
  H          -1.27525950413558     -0.68551709133642      0.92886614691110
