! Engrad def2-TZVPPD wB97M-D3BJ 
%pal nprocs 8 end%pal nprocs 64 end 
%tddft 
 Iroot 2 Nroots 3 
sf true 
end 
*xyz 0 3 
O   1.09747773 -0.89268191 -0.03112334
C   0.52255057 0.25015542 0.53134766
C   -0.49972383 0.92173407 -0.3240724
H   1.2699026 0.92495649 0.86462239
H   0.12879019 -0.13135965 1.59014578
H   -0.5744082 1.9948688 -0.24528466
H   -1.0507509 0.31802932 -1.01451636
*
