7
Coordinates from ORCA-job orca E -153.882965886379
  O           0.06205695334000      0.82226519326207     -0.00007404145095
  C           0.69977469551352     -0.40402021671564      0.00006603111605
  C          -0.72779949401635     -0.49983786865896     -0.00008395884284
  H           1.24457486183211     -0.65405708273903      0.90712469771802
  H           1.24442991002247     -0.65417302396337     -0.90706987711121
  H          -1.26052296110990     -0.66447878185161     -0.92329446981153
  H          -1.26031396558184     -0.66409821933346      0.92333161838246
