7
Coordinates from ORCA-job orca E -153.795797723836
  O           0.42245029675635      1.05900231285040     -0.00284540215133
  C           0.61442442050712     -0.26588958769893     -0.00056169696691
  C          -0.74546158619117     -0.73821972594940      0.00080057186267
  H           1.16530086353868     -0.62698947191987      0.88147214991302
  H           1.16505137163841     -0.63015000635531     -0.88142842615316
  H          -1.31048414490077     -0.76017708243126     -0.92174652331336
  H          -1.30908122134862     -0.75597643849563      0.92430932680906
