7
Coordinates from ORCA-job orca E -153.778467484937
  O           0.92873379099720      1.01247995959395      0.01318576077538
  C           0.78511620085727     -0.32065191429609      0.00070194859159
  C          -0.63696583225654     -0.60068717856703      0.00050488425369
  H           1.25614862340876     -0.80574374899860      0.87225920860729
  H           1.25176293865439     -0.78471728409510     -0.88389544123944
  H          -1.20267785838058     -0.55866430747952     -0.92279530333975
  H          -1.20333358344673     -0.51201761458352      0.92003894235124
