! Engrad def2-TZVPPD wB97M-D3BJ 
%pal nprocs 8 end%pal nprocs 64 end 
%tddft Nroots 2 Iroot 2 
sf true 
end 
*xyz 0 3 
O   2.40030853 -0.3919062 -1.11330327
O   0.06979949 2.90660725 -2.00883055
O   0.18262351 -3.84025316 0.77341565
O   -2.05081057 -1.00029755 -1.55813236
N   0.41848967 -1.95430235 2.01742128
N   -1.37579993 -0.29299889 0.47715815
N   1.08233326 -1.99713055 -0.20819714
N   -0.72231712 0.82285659 -1.53677386
C   1.48918104 0.03926103 1.02442304
C   -0.48533489 2.86108062 -0.00700194
C   0.58152743 -0.53243889 2.06756809
C   -0.46562784 0.29685973 1.34969389
C   2.30752637 1.26470099 1.27229712
C   -1.73125018 3.62173338 0.16885977
C   1.71403251 -0.75351798 -0.1843449
C   -0.39956146 2.11059171 -1.19904487
C   0.53003964 -2.68622315 0.86658389
C   -1.43962617 -0.19805112 -0.90034915
H   0.79558673 -0.20432451 3.07290673
H   -0.53307235 1.33925973 1.59224394
H   2.48521108 1.80198244 0.34934222
H   1.7999236 1.94064762 1.96603874
H   3.26943888 0.99461957 1.70895495
H   -2.38689847 2.92406071 0.70929148
H   -1.62016179 4.49638852 0.78646201
H   -2.23805046 3.86349088 -0.76653095
H   -0.03228816 -2.43398301 2.77011829
H   -1.78405612 -1.16447876 0.77725203
H   1.23328025 -2.55032166 -1.0351794
H   -0.61815336 0.65089577 -2.5233409
*
