! Engrad def2-TZVPPD wB97M-D3BJ 
%pal nprocs 8 end%pal nprocs 64 end 
%tddft 
 Iroot 2 Nroots 3 
sf true 
end 
*xyz 0 3 
O   0.91306736 -0.8767211 0.51829191
C   0.61490486 0.07105315 -0.41871171
C   -0.38475626 1.08045115 0.13060159
H   0.07389603 -0.44165328 -1.18760383
H   1.55452383 0.69679532 -0.80938099
H   -0.21076287 2.12822096 -0.12798599
H   -1.31512248 0.56176716 0.47056768
*
