7
Coordinates from ORCA-job orca E -153.930674962412
  O           0.70394538243240      1.34612797414075      0.06920381061677
  C           0.55388522713574      0.19851940798199     -0.24823606022252
  C          -0.44953586255431     -0.80741300028990      0.22412396155251
  H           0.08790154130632     -1.66179478657862      0.63587821965449
  H           1.24334067311719     -0.22879676116564     -1.00783331364285
  H          -1.00869842855828     -1.16744356359503     -0.63977195002021
  H          -1.12863853287906     -0.39759927049355      0.96663533206181
