! Engrad def2-TZVPPD wB97M-D3BJ 
%pal nprocs 8 end%pal nprocs 32 end 
 %tddft nroots 2 Iroot 2 
sf true 
end 
*xyz 0 3 
O   2.45915603901572 1.27059076903402 -0.31410837823296
O   -0.82220356017181 0.81572920433937 -2.40267593707086
O   0.52924814584588 -2.6313798619981 -1.61252242119925
O   -2.39174457009078 -1.52675149821245 1.16210516132533
N   0.63645466838829 -2.1556249772295 0.61062072429361
N   -1.84196941741387 0.66407849545354 1.44388061384181
N   1.59303282206562 -0.73175677997681 -0.92717664389632
N   -1.66972386738019 -0.30819252479151 -0.62959767281848
C   1.50065362540287 -0.07523872673471 1.3886026910673
C   -0.91661224197246 1.96712394159758 -0.3276666290413
C   0.8899883886746 -1.24597041489286 1.60901275221351
C   -1.28342726367727 1.82280691993677 0.95044239434664
C   1.78834072500328 0.93142725599888 2.45392830706013
C   -0.28073556206499 3.19844020841585 -0.8845982510757
C   1.90598450308958 0.24303601235126 0.01848050912174
C   -1.11666467837484 0.8300799775185 -1.22864476275064
C   0.89414222686927 -1.9013918245411 -0.71858540045392
C   -2.00490907048883 -0.47564279783669 0.69311613109394
H   0.54902623889614 -1.54152983026232 2.58965550478615
H   -1.16552312886462 2.61612159536815 1.67276466810249
H   1.34627984187767 1.8930274764304 2.19739486822967
H   1.39594815393958 0.60315188949441 3.41403564019079
H   2.85924991479394 1.0988901908228 2.55229466830144
H   -0.83581860493779 3.5574569187415 -1.74860212217266
H   -0.24239680232104 3.98497580034409 -0.13449966667196
H   0.73370697250032 2.97864244738436 -1.21157770998525
H   0.02165667802162 -2.9317593443157 0.78488352969277
H   -2.07349319663593 0.57648093064655 2.41627192046559
H   1.7528415286983 -0.48841812265416 -1.89317639416579
H   -1.75788850868832 -1.1234033304321 -1.21945809459785
*
