! opt def2-TZVPPD wB97M-D3BJ 
%pal nprocs 24 end%geom Constraints 
{B 9 8 3.0 C} 
{A 8 9 11 88.85714285714286 C} 
 end 
 end 
*xyz 0 1 
O   2.98579685529314 0.88758230159078 -0.86184571092411
O   -0.03983205397054 0.68929041702508 -2.10362336723772
O   0.93431434349854 -3.13274393337945 -0.68767288184107
O   -3.75829998830163 -0.84727300865116 -0.0472717177755
N   0.21184538946282 -1.54604804365365 0.7617588924445
N   -2.13631993928911 0.03188773433438 1.27350571071531
N   2.02598672506387 -1.14318467211666 -0.64531219127023
N   -1.91814233924584 0.03137116037665 -1.04498946748291
C   1.18097737274226 0.71693507080484 0.70173889017321
C   -0.20686880480777 1.27024627933494 0.21345042231937
C   0.41441080275909 -0.34173258966541 1.52336266615173
C   -0.82922175114212 0.58960593673968 1.44434972027296
C   1.92822011286806 1.69488653817281 1.5963734975385
C   -0.37809776891576 2.77134929626422 0.04819649358288
C   2.1403947470937 0.1972384729179 -0.35038567829864
C   -0.67361678962426 0.6214190571346 -1.0793014500539
C   1.04142578622994 -2.02697492875068 -0.21027082435993
C   -2.68467002550422 -0.30396816036989 0.07167054343891
H   0.80817443950001 -0.54572267081061 2.51895215321335
H   -0.83785272399001 1.27240685039143 2.28901317073582
H   2.31167340578204 2.52284411740894 1.00913016264629
H   1.28982602448342 2.08257620823614 2.38710022492991
H   2.77390820759972 1.19140411795486 2.06045858523949
H   -1.41857211141493 3.00964947214868 -0.16882755561625
H   -0.09065531563179 3.29799318042223 0.95389844358819
H   0.23426221611057 3.12492645074476 -0.77764887675592
H   -0.46772570547622 -2.21560145172536 1.0787081584806
H   -2.71769301149571 -0.17090724573546 2.06627440900372
H   2.60065167263658 -1.49057255715425 -1.3966820077142
H   -2.27169977231386 -0.32388339999036 -1.91951041514436
*
