! Engrad def2-TZVPPD wB97M-D3BJ 
%pal nprocs 8 end%pal nprocs 64 end 
%tddft Nroots 2 Iroot 2 
sf true 
end 
*xyz 0 3 
O   2.08894376 0.14437625 -1.22300999
O   -0.60782434 2.47095163 -2.594351
O   0.44349296 -3.70342677 0.40959562
O   -2.40852353 -1.22076637 -1.0988864
N   0.46256289 -1.90726789 1.85581262
N   -1.43460104 -0.20972626 0.69855489
N   1.12821924 -1.70131061 -0.38230943
N   -0.98474738 0.45393558 -1.59223118
C   1.13083509 0.31196651 1.0130774
C   -0.28924135 2.3602979 -0.30610032
C   0.57501969 -0.51831504 2.11428991
C   -0.37524681 0.40842359 1.4002405
C   2.05583849 1.45798518 1.33062786
C   -0.9628664 3.39386554 0.39750902
C   1.49213843 -0.36504489 -0.30886213
C   -0.47665195 1.77702633 -1.5964383
C   0.64450673 -2.52547983 0.62440865
C   -1.63216157 -0.40544805 -0.67774711
H   0.88331639 -0.25293724 3.12522556
H   -0.65721716 1.29877395 1.91042353
H   2.18378972 1.98519194 0.38560393
H   1.5978165 2.12605922 2.03948104
H   3.00102472 1.08781326 1.76610578
H   -1.96369362 3.03118932 0.70155481
H   -0.40940579 3.72489748 1.27047627
H   -1.13060339 4.29094247 -0.25481892
H   0.21467212 -2.53054873 2.60242864
H   -2.03477644 -0.83454218 1.20636116
H   1.42626626 -2.18806874 -1.20006818
H   -1.28874666 0.15314432 -2.48060716
*
