7
Coordinates from ORCA-job orca E -153.874623596020
  O           0.18335325050739      0.86323335788563     -0.00011587997742
  C           0.72456665082955     -0.39280727052312      0.00003624717183
  C          -0.69358324081742     -0.49169076765207     -0.00008257840948
  H           1.26464779709197     -0.67806437177246      0.90234069510871
  H           1.26466141424854     -0.67814718276658     -0.90224834928315
  H          -1.23269026458343     -0.60491025208333     -0.92583832728184
  H          -1.23244144828648     -0.60425620477951      0.92590819267135
