! Engrad def2-TZVPPD wB97M-D3BJ 
%pal nprocs 8 end%pal nprocs 64 end 
%tddft 
 Iroot 2 Nroots 3 
sf true 
end 
*xyz 0 3 
O   2.68298069 -0.81739603 -2.17205584
O   -1.67050563 1.58833838 -1.85550923
O   -1.43883454 -2.46838742 -0.89531822
O   -2.90512717 0.36256578 2.39969856
N   -0.19134394 -1.50091181 0.71668892
N   -0.66767938 1.03946518 2.10805145
N   0.64900989 -1.65830859 -1.47248819
N   -2.24021409 0.70754267 0.27344444
C   2.18134539 -0.67358329 0.0725565
C   -0.0398066 1.47246754 -0.22905615
C   0.98177671 -0.61410673 1.01633956
C   0.37699292 0.84908584 1.10906632
C   3.47828166 -0.16052657 0.53771393
C   0.94516061 2.23535465 -1.00669295
C   1.94402269 -1.09911536 -1.26430306
C   -1.40818709 1.3183163 -0.68080991
C   -0.40183949 -1.93407718 -0.54238315
C   -1.98294937 0.65062921 1.64956762
H   1.18470406 -0.83707181 2.04636897
H   1.15079762 1.44883342 1.45987389
H   4.18597308 -0.35938578 -0.2745658
H   3.46982723 0.85766975 0.79083428
H   3.70083883 -0.72527834 1.4639413
H   1.581013 1.48020233 -1.51088105
H   0.39159493 2.69659683 -1.83864388
H   1.49367041 2.99949096 -0.38166064
H   -0.8110377 -1.7223589 1.45026773
H   -0.57263104 0.65370713 3.01037981
H   0.31512541 -1.81182808 -2.42917097
H   -3.21605571 0.59248256 0.01857421
*
