! Engrad def2-TZVPPD wB97M-D3BJ 
%pal nprocs 8 end%pal nprocs 64 end 
%tddft 
 Iroot 2 Nroots 3 
sf true 
end 
*xyz 0 3 
O   0.47554153 -0.35515206 -1.00266135
C   0.71601984 -0.26965786 0.35996026
C   -0.01920053 0.88597237 0.93869677
H   1.79158111 -0.23903112 0.48128429
H   0.37490183 -1.17840313 0.87693139
H   0.52993111 1.56300303 1.52620532
H   -1.06124681 1.11828888 0.71498949
*
