! Engrad wB97M-D3BJ def2-TZVPPD 
%pal nprocs 8 end%pal nprocs 16 end 
%tddft nroots 2 Iroot 2
 sf true 
end 
*xyz 0 3 
O   1.55386568681308 0.9901904306484 -0.0895071143535
C   0.96037902146438 -0.00969779876076 0.20310575263115
C   -0.31302190119822 -0.67501126034694 -0.21906828065669
H   1.43679405400712 -0.64484121277066 0.98822551553116
H   -0.05563336547731 -1.67443311211857 -0.56893423594655
H   -0.86621068434229 -0.13935285251487 -0.98690734962594
H   -0.92726312222498 -0.7942318609614 0.67308571242037
*
