! Engrad def2-TZVPPD wB97M-D3BJ 
%pal nprocs 8 end%pal nprocs 64 end 
 %tddft nroots 2 Iroot 2 
sf true 
end 
*xyz 0 3 
O   3.27949685560341 0.59076163316066 -0.60769132732372
O   -0.58677865186034 1.16359020883354 -2.42404679456158
O   0.47866779352844 -2.95469387753628 -0.83979456272304
O   -3.27471714643819 -1.46565013317132 0.0521036758428
N   0.26218253593071 -1.54986587317697 0.92717783929058
N   -2.07150665613349 0.12462036489875 1.15583843103209
N   1.76271793824386 -1.08351711372919 -0.78493249955353
N   -1.66742893134847 -0.3353186343681 -1.09729155632307
C   1.60491054346063 0.47426079858829 1.05014417236393
C   -0.60079046259127 1.5448855848863 -0.08062794773976
C   0.38292021675414 -0.24472142894334 1.53197645338186
C   -0.75775672991204 0.74288076172529 1.22978412701571
C   2.21982733758479 1.52568084239837 1.8840405272386
C   -0.59391730500379 3.01994845055248 -0.07804559140728
C   2.29908407196342 0.03054563299433 -0.15836500623188
C   -0.91088121002063 0.81226604586073 -1.31049164197781
C   0.7966674391269 -1.93485700766361 -0.27257413194179
C   -2.40403167490371 -0.62831044842847 0.05181611385571
H   0.43412212703963 -0.39191002482047 2.61510875972946
H   -0.77917035816316 1.46410392131261 2.04472469920259
H   2.97248283985465 2.06486738706896 1.31853528740094
H   1.47645172368334 2.22454104526514 2.27166167321517
H   2.70159229638981 1.06975954130132 2.75636557393646
H   -1.57497139909293 3.40352858333974 0.22661036748622
H   0.1357620029112 3.41032092109186 0.63283457737804
H   -0.37591932346679 3.39694777986858 -1.07302119747243
H   -0.46881719357859 -2.16109922267803 1.24764792017429
H   -2.57573539951972 -0.13827402905294 1.98564934403159
H   2.2004770428446 -1.3804269479486 -1.64122598804427
H   -1.9123403228864 -0.87986476162968 -1.90931129727587
*
