30
Coordinates from ORCA-job orca E -908.785425114992
  O           2.50553927687577     -0.00692871784187     -1.46884814586126
  O          -0.56123483123506      2.27468712285430     -1.95968777426770
  O           0.44556552942462     -3.26709131900519      0.74825997282765
  O          -2.41732500507458     -1.81263865293091     -1.31138551487241
  N           0.54991162479252     -1.24560842580815      1.79099127191758
  N          -2.00953911607521     -0.53586711564639      0.52087733114111
  N           1.03084184024882     -1.43315144449084     -0.48138417192345
  N          -1.43112640230062      0.20928900886040     -1.61167426307083
  C           1.56347152986720      0.63529532186898      0.60498422533048
  C          -0.84265269363798      1.56707735025718      0.28506465156096
  C           0.39128307982230      0.13950570195869      1.60291155181820
  C          -1.32729337996939      0.53446216086506      1.15505751358578
  C           2.55781269854148      1.62158744100461      1.07254821315992
  C          -0.60140635999157      2.93091461971694      0.80346208269505
  C           1.76533872886953     -0.21934376912401     -0.52646125947324
  C          -0.90398014957268      1.41123685327479     -1.18421661003111
  C           0.66163188415159     -2.08109791309790      0.68363347274050
  C          -1.97819689269754     -0.79936037107502     -0.82645321463231
  H           0.49165664095342      0.66939124837317      2.54539670824089
  H          -1.81513009928939      0.87270713974016      2.06202659458458
  H           3.35379663352646      1.71396621386510      0.33871288229380
  H           2.11464451576997      2.60926295862557      1.22754210809761
  H           2.99373778566388      1.31811053306682      2.03007831589090
  H          -1.55652358097583      3.46371571520168      0.85110097902991
  H          -0.19046180682125      2.91025529079418      1.81149950912404
  H           0.05468943951798      3.47994149078979      0.13642562170702
  H           0.17215979003771     -1.71467448763345      2.59809210034531
  H          -2.30864491983471     -1.32116307253221      1.07218574546490
  H           1.19060932783673     -2.05129778932436     -1.26133352906441
  H          -1.44657508842420      0.04181690739286     -2.60480636835944
