! Engrad def2-TZVPPD wB97M-D3BJ 
%pal nprocs 8 end%pal nprocs 64 end 
%tddft 
 Iroot 2 Nroots 3 
sf true 
end 
*xyz 0 3 
O   3.40344652 0.84103947 0.11163578
O   -0.79712465 0.78282187 -2.73946525
O   1.2024769 -2.95624546 -0.66873407
O   -3.69163952 -1.46312291 0.0393489
N   0.27521036 -1.43054322 0.7703812
N   -2.23467605 0.04627544 0.902647
N   1.96564757 -0.80382217 -0.57078467
N   -2.16475526 -0.35625328 -1.28308064
C   1.4721644 0.60207987 1.34542251
C   -0.59495874 1.27717735 -0.46508962
C   0.2439374 -0.20229374 1.46845235
C   -0.91727457 0.77316105 0.88850161
C   1.81378335 1.66883148 2.37445181
C   0.25846949 2.46051228 -0.58453771
C   2.36375246 0.26897132 0.22314225
C   -1.11895848 0.51884011 -1.6007498
C   1.13847331 -1.85830065 -0.2326689
C   -2.71408366 -0.6861885 -0.05868636
H   -0.06008478 -0.45468334 2.46664629
H   -1.0216151 1.60773122 1.59205212
H   1.89206324 1.38760766 3.46654627
H   2.75063882 2.19319592 2.00744492
H   1.01304216 2.3830269 2.4131905
H   -0.21360661 3.18734238 -1.36529315
H   0.26216008 3.05716668 0.28054855
H   1.32075399 2.19497925 -0.96267754
H   -0.57406852 -1.94399821 0.86087914
H   -2.6277823 -0.20382664 1.81045294
H   2.71439361 -0.91759057 -1.23942152
H   -2.54812762 -0.78207023 -2.15291048
*
