! Engrad def2-TZVPPD wB97M-D3BJ 
%pal nprocs 8 end%pal nprocs 64 end 
%tddft 
 Iroot 1 Nroots 3 
sf true 
end 
*xyz 0 3 
O   2.7676428 -1.17026784 -2.42581973
O   -2.26775511 1.58062175 -1.36895301
O   -1.38496585 -2.50412386 -1.15554131
O   -2.3545408 1.09263801 3.19145401
N   -0.02669159 -1.69691289 0.43020083
N   -0.36718146 0.92589107 2.14736837
N   0.58274506 -1.58301303 -1.79161304
N   -2.32647502 1.19029414 0.9476297
C   2.10567636 -0.76910432 -0.13473092
C   -0.19165704 1.29449092 -0.25456063
C   1.01345007 -0.72934358 0.85467979
C   0.50034984 0.77120415 0.94578782
C   3.38352953 -0.21055802 0.20710456
C   0.59452111 1.80158137 -1.35869647
C   1.90961238 -1.20858216 -1.53318163
C   -1.70616173 1.31597043 -0.3561185
C   -0.33705128 -1.9402747 -0.87254399
C   -1.71321775 1.0251052 2.17795518
H   1.36908254 -1.10877402 1.84501156
H   1.43602523 1.32372551 1.07778258
H   3.53520082 -0.00784863 1.24370318
H   4.09544051 -0.91863933 -0.10428544
H   3.63186916 0.61940999 -0.44099922
H   -0.04099813 2.39652544 -2.00384013
H   1.41706014 2.36760504 -1.00471787
H   0.9967391 0.99606572 -1.95621493
H   -0.82243015 -1.78290257 1.03274701
H   0.13336829 0.75896895 2.99518692
H   0.53304506 -1.79393827 -2.82114101
H   -3.31436675 1.22325948 0.98046469
*
