! EnGrad wB97M-D3BJ def2-TZVPPD 
%pal nprocs 8 end%pal nprocs 16 end 
%tddft 
 sf true 
 nroots 2 Iroot 2 end 
*xyz 0 3 
O   -0.0253632813429 0.77047353037897 -3.312122296e-05
C   0.74572806647684 -0.45497172466202 1.063098867e-05
C   -0.73336551771554 -0.41735429333667 1.23963693e-06
H   1.27252710061472 -0.65426585156611 0.92223096872422
H   1.27247932183102 -0.65447040746115 -0.9221991767944
H   -1.2649042724585 -0.65386906703062 -0.91551808278979
H   -1.26490141740564 -0.65394218632241 0.91550754145733
*
