! Engrad def2-TZVPPD wB97M-D3BJ 
%pal nprocs 8 end%pal nprocs 64 end 
%tddft 
 Iroot 2 Nroots 3 
sf true 
end 
*xyz 0 3 
O   -0.70035949 0.35581574 -0.08461086
C   0.60530217 0.49319001 0.2114583
C   1.41171863 -0.73255241 0.10530588
H   0.70577515 0.95659773 1.25326413
H   1.08624374 1.26817226 -0.45395732
H   1.125096 -1.70247144 0.50040957
H   2.29163279 -0.54244149 -0.52052846
*
