7
Coordinates from ORCA-job orca E -153.818048125508
  O           0.32110923146737      0.99991012558959     -0.00233124604450
  C           0.63230372864120     -0.30301530194779     -0.00045965901849
  C          -0.73907922668142     -0.70040712333927      0.00062908804915
  H           1.18862664372379     -0.63634271433421      0.88590567425365
  H           1.18869583121598     -0.63880470653376     -0.88580203658211
  H          -1.29533206700735     -0.72160283603583     -0.92460845917689
  H          -1.29412414135957     -0.71813744339873      0.92666663851918
