! Engrad def2-TZVPPD wB97M-D3BJ 
%pal nprocs 8 end%pal nprocs 64 end 
%tddft 
 Iroot 2 Nroots 3 
sf true 
end 
*xyz 0 3 
O   0.11909431 0.94383461 0.78760238
C   0.5463178 -0.310332 0.42877813
C   0.56865268 -0.47928046 -1.05580344
H   -0.26092811 -0.95113661 0.84308005
H   1.56242441 -0.68018665 0.80939829
H   1.40801796 -0.91911786 -1.73694045
H   -0.12554109 -0.18778924 -1.75250232
*
