! EnGrad wB97M-D3BJ def2-TZVPPD 
%pal nprocs 8 end%pal nprocs 16 end 
%tddft 
 sf true 
 nroots 2 Iroot 1 end 
*xyz 0 3 
O   0.49498487141749 1.30542896296359 0.09562086685502
C   0.59397277051502 0.1665663550522 -0.28776243360354
C   -0.43415360249252 -0.81954265599299 0.20413960236378
H   0.04854596293068 -1.64293201136086 0.73313473613117
H   1.39455015109016 -0.16293880487806 -0.96977155286261
H   -0.97139978721258 -1.26162590359523 -0.63670230846615
H   -1.12430036624826 -0.30335594218865 0.86134108958231
*
