! Engrad def2-TZVPPD wB97M-D3BJ 
%pal nprocs 8 end%pal nprocs 64 end 
%tddft Nroots 2 Iroot 2 
sf true 
end 
*xyz 0 3 
O   2.93566334 1.25264588 -0.48900982
O   -0.52792682 0.42688911 -1.87901524
O   1.40537721 -2.83694797 -1.77105731
O   -3.13217662 -1.37083649 1.36715996
N   0.74076053 -1.99618445 0.23504341
N   -2.33168007 0.74199073 1.65801533
N   2.1985655 -0.81032236 -1.08696879
N   -1.93085163 -0.38888668 -0.30259174
C   1.44733406 0.16162349 0.98685473
C   -0.9055086 1.76762067 0.04688617
C   0.75324919 -1.00602427 1.17608058
C   -1.5813013 1.8063296 1.19888671
C   1.55752653 1.2094798 2.03640495
C   -0.09776976 2.90869146 -0.48585109
C   2.24242108 0.28076763 -0.22119334
C   -1.06824894 0.58944961 -0.80781249
C   1.44557118 -1.94900501 -0.95355483
C   -2.51738803 -0.42073646 0.94214533
H   0.1754532 -1.18847808 2.05489626
H   -1.54008128 2.65601372 1.85661328
H   1.36830153 2.19139061 1.61364719
H   0.86411061 1.02077742 2.85524941
H   2.577758 1.23271691 2.42902131
H   -0.49133152 3.23031278 -1.43996047
H   -0.11182747 3.74692431 0.2011532
H   0.93804943 2.62318872 -0.65537896
H   0.18996978 -2.83650964 0.37897145
H   -2.7815549 0.77772917 2.54404122
H   2.68451423 -0.70269921 -1.95961393
H   -2.04575886 -1.22156304 -0.86837282
*
