! Engrad def2-TZVPPD wB97M-D3BJ 
%pal nprocs 8 end%pal nprocs 64 end 
%tddft 
Iroot 3 Nroots 3 
sf true 
end 
*xyz 0 3 
O   2.6535313542634547 1.090663708189626 -0.5136069834598929
O   -0.6211889621360276 0.9305891410999889 -2.3458870316297213
O   0.5186296275057886 -2.7962903878756875 -1.3435530441611403
O   -2.66367907358415 -1.545636196670849 0.7847748069589976
N   0.5412140381171581 -1.9989417830505922 0.7391570989955737
N   -1.982869519584127 0.46513366741682705 1.3622377065013043
N   1.6285549931923775 -0.874525967852658 -0.8935008234811402
N   -1.6223132064601467 -0.30154419710137964 -0.7610877674302002
C   1.4932915824213535 0.12036480603351554 1.22383598727961
C   -0.7966298980846355 1.8166219814125202 -0.1770303078222448
C   0.7546346862971048 -0.9538454569767287 1.5909865385293707
C   -1.2008051263620851 1.5241234759408886 1.0796723748707657
C   1.9003005610156103 1.1181861369330077 2.1748633781574753
C   -0.35607805013502225 3.130511378736762 -0.5315648333004119
C   1.990127820389679 0.17875026322621732 -0.10948483738262244
C   -0.9833749963363988 0.8282732250170348 -1.20547870801327
C   0.8705499039645789 -1.9521624635305501 -0.5689948340455845
C   -2.1214895035923824 -0.5256208021237635 0.4767127520970142
H   0.5792277763617626 -1.1856924735829555 2.6255903546921617
H   -1.199284474066457 2.2790893380853596 1.8410168833113256
H   1.7015547137295768 2.1131056910675423 1.7847801540542667
H   1.4056147654482873 1.0634224788346986 3.143686342896289
H   2.9576298698871284 1.1436493838045132 2.4264864000099777
H   -1.0883624360984478 3.538973307359117 -1.22703237386124
H   -0.19409016031551518 3.8549437546994145 0.2563720056018788
H   0.5815060027912821 3.1014250294813905 -1.0831027262445958
H   -0.09775924373957537 -2.73110687661059 0.9811052082020488
H   -2.3308643264242725 0.3213892015536261 2.286623150305166
H   1.8649611472908092 -0.804796483385751 -1.8695825236837855
H   -1.7299398657567313 -1.0340528801306093 -1.4433943479473772
*
