30
Coordinates from ORCA-job orca E -908.772421835909
  O           3.91918690598698      0.31637715608081      0.10962913092024
  O          -1.47124125929149      1.31021146124328     -2.46208682547649
  O           1.04471661594334     -2.95577128721298     -1.14508403808047
  O          -3.59941035081862     -1.28289674393913      0.54444872748769
  N           0.26631548169891     -1.36909107316678      0.27221682197279
  N          -2.00014097942637      0.12987741048412      1.32927630245374
  N           2.47347793798313     -1.33244251306169     -0.46152771753678
  N          -2.29546463668108     -0.18673181747877     -0.96177148500926
  C           1.76849690220985      0.38652042411019      1.06444883640733
  C          -0.81832016918111      1.53488043982280     -0.20032259655565
  C           0.44049676646205     -0.29641199055406      1.22351317985291
  C          -0.68393875442380      0.73066265914901      1.11515359629321
  C           2.09871695902248      1.56029649690754      1.88631724014771
  C          -0.63625634959218      2.99062903236385     -0.17529576836785
  C           2.81151746880806     -0.17808489944166      0.21751488195557
  C          -1.51058922797861      0.90536343722910     -1.31856240268944
  C           1.23505744464702     -1.96020423108884     -0.48444525851489
  C          -2.69608612868146     -0.50625254141424      0.33076064269015
  H           0.39556407986345     -0.71605656715150      2.24669800525850
  H          -0.53700392408353      1.45674708460048      1.91340381226566
  H           3.17623098830421      1.66283746811842      1.97490575568739
  H           1.73220485309504      2.49168210384343      1.42623390424382
  H           1.63649679246429      1.50400051973406      2.87378432077846
  H          -1.36543434414777      3.45793766264417      0.49950876942028
  H           0.34733444388845      3.26197773387959      0.23031024666360
  H          -0.75887602099315      3.41291054106259     -1.16753844834994
  H          -0.56726185079403     -1.92674110587274      0.33731855346118
  H          -2.29720798117706     -0.13672651100234      2.25218228548162
  H           3.17235369507100     -1.72849410698873     -1.06863792358391
  H          -2.82833535817799     -0.62200624290008     -1.69775254927721
