! Engrad def2-TZVPPD wB97M-D3BJ 
%pal nprocs 8 end%pal nprocs 64 end 
%tddft 
 Iroot 1 Nroots 3 
sf true 
end 
*xyz 0 3 
O   0.48672627 -0.3503786 -1.01480143
C   0.69548329 -0.27035576 0.36008818
C   -0.02008496 0.88011811 0.93889684
H   1.82015613 -0.14930642 0.55619471
H   0.42018605 -1.20199169 0.90912387
H   0.57207173 1.53291508 1.52483336
H   -1.0497057 1.08151896 0.78907753
*
