30
Coordinates from ORCA-job orca E -908.791521404734
  O           3.32373300691694      0.50168180483454     -0.64817533132966
  O          -0.69212974833991      1.28376086988665     -2.43215452618898
  O           0.45100742502737     -2.97566521343230     -0.73398638280324
  O          -3.17668828322045     -1.58798549097286     -0.03185298084142
  N           0.28065820467932     -1.50816102270809      0.98795806047139
  N          -2.08568293346124      0.05663711021776      1.10668443577737
  N           1.71121441103483     -1.08716466864647     -0.79293216882694
  N          -1.61814919098246     -0.34699427300761     -1.13965850243839
  C           1.70019520928622      0.45626982307435      1.05796166426722
  C          -0.71199021163370      1.59247882886867     -0.08238505878633
  C           0.39233913933512     -0.17135078711439      1.52698980623435
  C          -0.82803166705932      0.76382817038224      1.21160185830759
  C           2.35264207677803      1.49201917232434      1.87627712924741
  C          -0.68968254197582      3.06251131216804     -0.04616247336983
  C           2.32592440494066     -0.00756325566210     -0.17225087901064
  C          -0.97462392836442      0.87446661833593     -1.32538298673997
  C           0.77620563805918     -1.93153178393836     -0.21703314518307
  C          -2.35603836885523     -0.70317479316822     -0.01063050896096
  H           0.43091083447486     -0.27796618234346      2.61582556116542
  H          -0.90868674838980      1.46762100522601      2.03844777435304
  H           3.25266920526192      1.85080949552267      1.38853031035767
  H           1.68175251996099      2.33862594892243      2.05858815873499
  H           2.60669264979534      1.08971375943530      2.86276716660287
  H          -1.63815801078915      3.44575303670609      0.35006488966715
  H           0.09419270238296      3.42787090981008      0.62263251046160
  H          -0.54279405234270      3.46630836178472     -1.04318687145468
  H          -0.41793694305438     -2.12561134889873      1.36367734221875
  H          -2.59474679857860     -0.23073501348444      1.92495615767823
  H           2.13276515235110     -1.41828418914962     -1.64485399222966
  H          -1.82496315323766     -0.88316820497320     -1.96771701738131
