! Engrad def2-TZVPPD wB97M-D3BJ 
%pal nprocs 8 end%pal nprocs 64 end 
%tddft Nroots 2 Iroot 1 
sf true 
end 
*xyz 0 3 
O   2.21424053 -0.19761131 -1.1744273
O   -0.13468138 2.7106204 -2.44827191
O   0.29634294 -3.79364421 0.70880222
O   -2.13981754 -1.10640861 -1.28300735
N   0.37701871 -1.89801825 1.95905714
N   -1.29281813 -0.18422205 0.56006683
N   1.06873915 -1.92140097 -0.27714121
N   -0.81278359 0.71148428 -1.61506675
C   1.17837183 0.22173202 0.92067753
C   -0.52377045 2.54227504 -0.12991185
C   0.58440698 -0.51500342 2.14692175
C   -0.28650644 0.42831193 1.29632889
C   2.13700693 1.35655146 1.21334523
C   -1.47423903 3.46696414 0.45242876
C   1.52597848 -0.61064358 -0.26800953
C   -0.31671783 2.01957845 -1.44911007
C   0.53470895 -2.6052305 0.80027302
C   -1.46477126 -0.23347842 -0.80224152
H   0.88683618 -0.1799627 3.11625269
H   -0.45709315 1.36415185 1.79617467
H   2.34637281 2.02145281 0.35662198
H   1.82028162 1.97609209 2.03472386
H   3.05650071 0.85219892 1.50503878
H   -2.48165068 3.05618623 0.50322827
H   -1.18881514 3.7744861 1.47186531
H   -1.59163167 4.39764945 -0.18032977
H   -0.05604507 -2.39175258 2.70264225
H   -1.80407047 -0.92852055 1.04814859
H   1.26610206 -2.44480473 -1.11528906
H   -1.06276828 0.51289372 -2.5784889
*
