! Engrad def2-TZVPPD wB97M-D3BJ 
%pal nprocs 8 end%pal nprocs 64 end 
%tddft 
 Iroot 1 Nroots 3 
sf true 
end 
*xyz 0 3 
O   -0.61232888 -0.00649485 0.60014751
C   0.54742935 0.58825473 0.12825794
C   1.38144708 -0.40740424 -0.56221512
H   1.05370528 0.98289861 0.9814702
H   0.26577265 1.48109237 -0.51930426
H   1.86755726 -1.23562123 0.01546188
H   1.52669392 -0.53190434 -1.64147693
*
