! EnGrad wB97M-D3BJ def2-TZVPPD 
%pal nprocs 8 end%pal nprocs 16 end 
%tddft 
 sf true 
 nroots 2 Iroot 2 end 
*xyz 0 3 
O   -0.06819514243554 0.75665326275411 -3.594881361e-05
C   0.77462661732789 -0.49168862573655 -8.27795132e-06
C   -0.74030548250891 -0.38159683386766 1.548541318e-05
H   1.29015080597122 -0.65183094112905 0.93219453002974
H   1.29017556864004 -0.65188534948525 -0.93218593468762
H   -1.27209669338261 -0.64907266016125 -0.91193111142584
H   -1.2721556736121 -0.64897885237435 0.91195125743547
*
