! Engrad def2-TZVPPD wB97M-D3BJ 
%pal nprocs 8 end%pal nprocs 64 end 
%tddft Nroots 2 Iroot 2 
sf true 
end 
*xyz 0 3 
O   4.06809488 -0.24344226 1.05036529
O   -2.14736586 1.87370793 -2.05134499
O   1.34940805 -2.85341228 -1.25530338
O   -3.59382082 -1.59637831 0.42853321
N   0.4874151 -1.0241365 -0.24517009
N   -1.93481998 -0.2457529 1.24706078
N   2.59223766 -1.75562182 0.3252901
N   -2.67097793 0.02326984 -0.91460099
C   1.8110945 0.4715483 1.01165416
C   -1.09320984 1.64296943 -0.00032926
C   0.46676269 -0.20849497 0.956486
C   -0.80054233 0.64642507 1.08266676
C   2.19340705 1.83794766 1.41586257
C   -0.57594584 2.99385331 0.05068294
C   2.90849936 -0.48799477 0.79736825
C   -1.9816403 1.21304374 -1.05787482
C   1.46528452 -1.95150559 -0.45966802
C   -2.78226667 -0.69167728 0.28027457
H   0.53406402 -0.88534187 1.83122796
H   -0.61757824 1.19125093 2.03282034
H   3.12981886 1.78705126 1.94501644
H   2.26367158 2.56036621 0.56835744
H   1.47595458 2.3241972 2.09403651
H   -0.44303053 3.36887318 1.07490948
H   0.39525775 3.11335224 -0.39709928
H   -1.23827735 3.65604059 -0.49591995
H   -0.41179648 -1.35379972 -0.56460824
H   -1.88868046 -0.89263907 2.00665357
H   3.3535734 -2.39001308 0.14458704
H   -3.35352965 -0.15034615 -1.62897674
*
