! Engrad def2-TZVPPD wB97M-D3BJ 
%pal nprocs 8 end%pal nprocs 64 end 
%tddft Nroots 2 Iroot 1 
sf true 
end 
*xyz 0 3 
O   2.92562208 1.25091906 -0.50156497
O   -0.5387579 0.42670565 -1.84876919
O   1.42071256 -2.83491521 -1.8141568
O   -3.09211946 -1.36250697 1.44269188
N   0.79313115 -2.0353076 0.2268078
N   -2.37317474 0.78639029 1.66330304
N   2.21340439 -0.81143645 -1.10854488
N   -1.91581832 -0.38780295 -0.25526622
C   1.52296507 0.10384097 1.00715143
C   -0.98989643 1.81755756 0.01989153
C   0.82626897 -1.06436538 1.18157565
C   -1.65773926 1.85984559 1.18022739
C   1.61144391 1.16062107 2.05242896
C   -0.18004853 2.95631734 -0.51890998
C   2.2687714 0.26251456 -0.22812705
C   -1.09523482 0.60541872 -0.7896248
C   1.4712228 -1.96152266 -0.97894161
C   -2.51400111 -0.40254376 0.98684589
H   0.26396889 -1.253797 2.07932685
H   -1.64674166 2.72878429 1.81298892
H   1.34111664 2.12782796 1.63210685
H   0.95564815 0.94174665 2.88863464
H   2.6316959 1.25469824 2.40948945
H   -0.55901462 3.25747959 -1.49588612
H   -0.21661336 3.81095183 0.15349907
H   0.85686469 2.66270353 -0.65113571
H   0.25990901 -2.86736325 0.37055894
H   -2.83579052 0.82550309 2.55680708
H   2.67968292 -0.69079426 -1.98749775
H   -1.99075889 -1.23764002 -0.78596701
*
