! Engrad def2-TZVPPD wB97M-D3BJ 
%pal nprocs 8 end%pal nprocs 32 end 
%tddft Nroots 2 Iroot 1 
sf true 
end 
*xyz 0 3 
O   -0.24128692 0.94827611 -0.50270615
C   0.46035594 -1.15685199 0.05279824
C   -0.23006396 0.03095169 0.47941525
H   1.57262024 -1.25659205 0.05674326
H   -0.15247089 -1.95601538 -0.47614956
H   -1.29180924 -0.20590775 0.71024937
H   0.03990567 0.60391233 1.34748696
*
