30
Coordinates from ORCA-job orca E -908.761461925235
  O           3.38496559557168      0.40700000570617     -0.70602622644166
  O          -0.81710847092072      1.36989681985225     -2.45704968430023
  O           0.41955080537578     -2.94893880556131     -0.58765432252202
  O          -3.05183961980919     -1.72923074384794     -0.11311660900540
  N           0.32357169508517     -1.40935222422431      1.07931302539054
  N          -2.10454306842539     -0.01651953488306      1.05182247687460
  N           1.62975209318622     -1.03487495391550     -0.80514862804919
  N          -1.56652711607270     -0.36276775288710     -1.17998662964111
  C           1.84153366568664      0.45537280604841      1.06929651827705
  C          -0.88020029635716      1.65816553764970     -0.10775656046014
  C           0.41030487354049     -0.03534765402550      1.51653665097437
  C          -0.94276159910186      0.82231606339232      1.17365766984724
  C           2.62338150392515      1.34367195921432      1.94024805507160
  C          -0.91104636333761      3.12749978196278     -0.08393679816950
  C           2.36339136338994     -0.01833038236269     -0.19369316837887
  C          -1.06200654501126      0.92612130615342     -1.35252769231472
  C           0.75461070022159     -1.87662357019629     -0.13990218152481
  C          -2.29951127655971     -0.78751396508267     -0.07224387861071
  H           0.42996866531437     -0.06730419864160      2.60930389184042
  H          -1.09520781696740      1.49884567273827      2.01146411233236
  H           3.59163120063304      1.55546835784798      1.49847356447401
  H           2.09950109003949      2.28824188490487      2.12046989435462
  H           2.76099176661330      0.88251534581966      2.92473467630969
  H          -1.89579818628576      3.47577583784528      0.25467504548250
  H          -0.18074187911210      3.53175785450564      0.61877962170350
  H          -0.73352423619383      3.52573482973581     -1.07840960607027
  H          -0.32133675585730     -2.03509840586137      1.53052717393937
  H          -2.61451687992304     -0.32533327611904      1.86096524987388
  H           2.01217396504549     -1.40209030648393     -1.66109387530211
  H          -1.71605887369333     -0.90405828928456     -2.01712176595500
