7
Coordinates from ORCA-job orca E -153.877815815591
  O           0.15883013881521      0.85288595636108     -0.00010103575983
  C           0.72415586006327     -0.39746726708230      0.00003151815362
  C          -0.69744200323837     -0.48396327459495     -0.00005835087716
  H           1.26401744467666     -0.67483984370286      0.90395818013518
  H           1.26402819190212     -0.67488351214863     -0.90388219705368
  H          -1.23553191863875     -0.61102380200577     -0.92503285327493
  H          -1.23537557529214     -0.61048256582487      0.92508473867680
