! Engrad def2-TZVPPD wB97M-D3BJ 
%pal nprocs 8 end%pal nprocs 64 end 
%tddft Nroots 2 Iroot 2 
sf true 
end 
*xyz 0 3 
O   3.79014886 0.43993894 -0.06275803
O   -1.27873604 1.15896471 -2.44493471
O   0.93016729 -2.89427476 -1.21084539
O   -3.6113633 -1.21568673 0.59647498
N   0.27180297 -1.43486497 0.39079613
N   -2.0073976 0.20798628 1.3451306
N   2.37469629 -1.20986859 -0.56067056
N   -2.18331919 -0.28039938 -0.94267847
C   1.76906798 0.3423214 1.1213717
C   -0.81649965 1.51196601 -0.18522544
C   0.43384788 -0.25991404 1.21987932
C   -0.71137168 0.7910387 1.13014276
C   2.14233321 1.49685186 1.93788764
C   -0.55372652 2.93934637 -0.26122722
C   2.72100657 -0.09423907 0.15743124
C   -1.42158058 0.83738603 -1.29776165
C   1.16711034 -1.93416864 -0.52833288
C   -2.67960346 -0.47557653 0.34179626
H   0.3450252 -0.58193549 2.26216874
H   -0.51334263 1.50934064 1.90617934
H   3.23462948 1.55391498 1.99131498
H   1.77974239 2.38456535 1.46843568
H   1.75439016 1.42326064 2.94633058
H   -1.35863976 3.43917192 0.31064186
H   0.38420814 3.18800086 0.21809562
H   -0.61409937 3.25699635 -1.32924547
H   -0.61647905 -1.9313585 0.45589913
H   -2.26810657 -0.13562847 2.26576162
H   3.06478236 -1.49986412 -1.2806072
H   -2.66852338 -0.832675 -1.68814803
*
