! Engrad def2-TZVPPD wB97M-D3BJ 
%pal nprocs 8 end%pal nprocs 64 end 
%tddft Nroots 2 Iroot 1 
sf true 
end 
*xyz 0 3 
O   3.16878358 1.11947602 -0.02179365
O   -0.76128028 0.54598911 -2.59000794
O   1.01157145 -2.63775743 -1.29245617
O   -2.95070166 -1.56269618 0.81731823
N   0.48497835 -1.8083447 0.70218273
N   -2.33442981 0.66936318 1.2209258
N   2.23708505 -0.93965282 -0.48790545
N   -2.01887639 -0.4184687 -0.91396261
C   1.40325039 0.28224279 1.34151869
C   -0.79720975 1.63625756 -0.45803883
C   0.5395517 -0.78521764 1.61209024
C   -1.3539479 1.57851166 0.81286041
C   1.53585109 1.30946794 2.41906469
C   0.09044045 2.75770376 -0.85149898
C   2.3006034 0.23230226 0.19707448
C   -1.17647336 0.62481276 -1.42334349
C   1.19153243 -1.82338544 -0.46864313
C   -2.48475522 -0.55601105 0.3907857
H   -0.17057838 -0.76495419 2.33244284
H   -1.17008114 2.35836069 1.46292219
H   1.96298398 2.20660681 1.90155311
H   0.62928276 1.54953238 2.90424733
H   2.35242477 1.13175126 3.1739123
H   -0.54700319 3.55273671 -1.30614975
H   0.37008943 3.25382993 0.10442309
H   0.89032303 2.35033547 -1.47823034
H   -0.3242193 -2.4188133 0.7821908
H   -2.41892048 0.53339749 2.25940594
H   2.90172969 -1.12588966 -1.32861634
H   -1.87929033 -1.30923751 -1.5032089
*
