! Engrad def2-TZVPPD wB97M-D3BJ 
%pal nprocs 8 end%pal nprocs 64 end 
%tddft Nroots 2 Iroot 2 
sf true 
end 
*xyz 0 3 
O   2.60273929 1.159078 -0.54894271
O   -0.59399202 0.84177914 -2.28166542
O   0.70402521 -2.86460801 -1.45472998
O   -2.58099667 -1.6523211 0.96870044
N   0.58514369 -2.05873514 0.66661138
N   -1.97352755 0.49369226 1.44372776
N   1.71284332 -0.88287778 -0.95908437
N   -1.64164274 -0.35298471 -0.6591375
C   1.33998617 0.15500154 1.18036695
C   -0.77573069 1.83718499 -0.15027167
C   0.73178106 -0.98752471 1.52564745
C   -1.33509465 1.6548893 1.11495189
C   1.60805728 1.27492192 2.1329399
C   -0.07784913 3.08318888 -0.53595243
C   1.94092435 0.22376215 -0.15352562
C   -0.96800879 0.79175701 -1.11539204
C   0.97197794 -2.00178943 -0.65231803
C   -2.10722392 -0.58690997 0.60663583
H   0.31350052 -1.14949271 2.51826234
H   -1.27248152 2.40725716 1.86389464
H   1.38106953 2.24685464 1.70048934
H   1.01221313 1.13943887 3.05620635
H   2.67068161 1.29371142 2.39400869
H   -0.54999576 3.51442588 -1.42209622
H   -0.07646733 3.81902651 0.26100502
H   0.96136232 2.87932209 -0.83503645
H   -0.02200633 -2.83348152 0.91104583
H   -2.35062783 0.37616192 2.35929118
H   2.02177522 -0.79971012 -1.92226226
H   -1.71083829 -1.12706088 -1.3057741
*
