! Engrad def2-TZVPPD wB97M-D3BJ 
%pal nprocs 8 end%pal nprocs 64 end 
%tddft Nroots 2 Iroot 2 
sf true 
end 
*xyz 0 3 
O   2.95988846 1.25031012 -0.50119131
O   -0.79952605 0.2140543 -2.05922892
O   1.30914512 -2.72585584 -1.75006661
O   -3.13651243 -1.23612876 1.58684772
N   0.59085376 -1.83672998 0.25398105
N   -2.27036141 0.83676621 1.57142964
N   2.20329105 -0.78048257 -0.9833065
N   -2.07705203 -0.45400576 -0.30496491
C   1.62314303 0.20637999 1.14160586
C   -0.89518768 1.6373817 -0.1717179
C   0.70943483 -0.90423261 1.2118761
C   -1.35545884 1.7811354 1.16867643
C   1.82808606 1.21828487 2.16446591
C   0.01398718 2.66875305 -0.70464528
C   2.26136298 0.298369 -0.14746569
C   -1.14760953 0.45636244 -0.90493003
C   1.41581473 -1.87121083 -0.86164963
C   -2.53047067 -0.3906716 0.96861496
H   0.20343067 -1.14874938 2.14868412
H   -1.19898152 2.6176471 1.89699118
H   1.97593154 2.23739215 1.76932036
H   1.04020488 1.23701005 2.92029248
H   2.75563187 1.06985199 2.78604081
H   0.26993395 2.49428841 -1.73626535
H   -0.22155509 3.77051078 -0.45189235
H   0.98892374 2.62090102 -0.18698584
H   -0.01058268 -2.68141989 0.25954069
H   -2.57160883 0.98359718 2.49889237
H   2.80400413 -0.83774807 -1.76564552
H   -2.30651266 -1.28131515 -0.86656502
*
