30
Coordinates from ORCA-job orca E -908.782254751073
  O           3.34655816003862      0.46025837920768     -0.66543615578850
  O          -0.74120900992082      1.33111587719020     -2.43631697419238
  O           0.43864158750669     -2.97909435151829     -0.68060851817443
  O          -3.13258546206483     -1.64120491776769     -0.07271122039811
  N           0.29165770154302     -1.48281812107112      1.01935494686893
  N          -2.09288682997029      0.02335584055352      1.08396700060999
  N           1.68987234333445     -1.08609203101762     -0.79280032128646
  N          -1.59763275214667     -0.35027756858549     -1.15885060364893
  C           1.74602810656380      0.45069046652952      1.06077516371518
  C          -0.77028972683406      1.61485827868418     -0.08502495759845
  C           0.39699197926602     -0.13189470929857      1.52425579688226
  C          -0.86674798468701      0.77609886603756      1.20144885102887
  C           2.42637672701986      1.46654468712222      1.87863435965774
  C          -0.74577085244634      3.08341028633762     -0.03939544484833
  C           2.34050751691718     -0.02274516868682     -0.17741961631098
  C          -1.00687021150601      0.90026181693208     -1.33272237029859
  C           0.76872029791823     -1.92489427404458     -0.18776633070383
  C          -2.33534268991342     -0.73611533603190     -0.03982125337671
  H           0.43063020848475     -0.21483930532508      2.61517795722439
  H          -0.97674448733653      1.46867215774797      2.03409017214766
  H           3.36210920575370      1.76395456101745      1.41736283024749
  H           1.79771278691654      2.35493195146415      2.01224670962826
  H           2.61699224441233      1.07905356846654      2.88504392971255
  H          -1.68500307733722      3.46422799763570      0.38088554533292
  H           0.05125471376188      3.44316267353186      0.61756751984377
  H          -0.61793810768144      3.49508338356458     -1.03568405754067
  H          -0.39374388390127     -2.10041725933004      1.41850588014696
  H          -2.60473775729010     -0.27406419456031      1.89662302428693
  H           2.10169504242681     -1.43317130399638     -1.64319520377593
  H          -1.78564578882792     -0.88305225078897     -1.99358665939161
