! Engrad def2-TZVPPD wB97M-D3BJ 
%pal nprocs 8 end%pal nprocs 32 end 
%tddft Nroots 2 Iroot 1 
sf true 
end 
*xyz 0 3 
O   0.75880175 1.37081039 -0.4859805
C   0.35993002 0.408031 0.38720787
C   -0.2290876 -0.97765957 0.11430266
H   0.3995695 0.7741828 1.38899362
H   0.3902846 -1.71500331 -0.48710488
H   -1.15660584 -0.96519621 -0.44378087
H   -0.47731722 -1.50187671 1.06665944
*
