! Engrad def2-TZVPPD wB97M-D3BJ 
%pal nprocs 8 end%pal nprocs 64 end 
%tddft 
 Iroot 1 Nroots 3 
sf true 
end 
*xyz 0 3 
O   3.21895146 -0.70551585 -1.88996143
O   -2.23538509 1.76819853 -1.21877548
O   -1.06650157 -2.3033561 -2.11069983
O   -2.55417265 1.00088759 3.28406941
N   -0.33811517 -1.43342793 -0.11827725
N   -0.59039864 0.68754769 2.18323386
N   1.0956905 -1.56616026 -2.01098877
N   -2.42381105 1.15087047 0.97587501
C   2.02663485 -0.97148379 0.11460987
C   -0.21823247 1.30770755 -0.13296054
C   0.68531965 -0.87795663 0.69447312
C   0.30387362 0.59641608 1.01220368
C   3.22529276 -0.64619975 0.98160093
C   0.58338486 1.59142766 -1.38739765
C   2.16522148 -1.04193914 -1.32122923
C   -1.66710415 1.4615942 -0.18152832
C   -0.12289901 -1.87917659 -1.4402673
C   -1.91794261 0.93292173 2.23533492
H   0.57863797 -1.32606874 1.67236598
H   1.29364196 1.05208782 1.31394284
H   3.29858151 0.44042566 1.21638235
H   3.15155776 -1.12240771 2.01787124
H   4.18180819 -0.98671387 0.59127366
H   0.42526874 0.72623608 -2.08741234
H   0.02626651 2.41893164 -1.83627448
H   1.6082437 1.75042964 -1.19284931
H   -1.19626581 -1.51724946 0.37007895
H   -0.16658059 0.78425647 3.09276724
H   1.17379768 -1.65179997 -2.99511113
H   -3.29186983 1.64250661 0.87690858
*
