! EnGrad wB97M-D3BJ def2-TZVPPD 
%pal nprocs 8 end%pal nprocs 16 end 
%tddft 
 sf true 
 nroots 2 Iroot 2 end 
*xyz 0 3 
O   0.38766066202846 1.03940717514858 -0.00273451289665
C   0.62044238125678 -0.27870899382023 -0.00052625709514
C   -0.74321329525325 -0.72697768677698 0.0007605376617
H   1.17356751334213 -0.63040701484713 0.88287020998704
H   1.1733942869602 -0.63346092096028 -0.88278053966068
H   -1.30548811206398 -0.74611039369864 -0.92264587269992
H   -1.30416343627033 -0.74214216504532 0.92505643470365
*
