! Engrad def2-TZVPPD wB97M-D3BJ 
%pal nprocs 8 end%pal nprocs 64 end 
 %tddft nroots 2 Iroot 1 
sf true 
end 
*xyz 0 3 
O   2.57391985378839 1.17539192344165 -0.51793308304332
O   -0.61741297593929 0.85636942150997 -2.28274929910531
O   0.60885273778066 -2.79314488530621 -1.52620153528052
O   -2.49069870943825 -1.62849542469324 1.02858156122025
N   0.62244153413618 -2.10531757281336 0.64448097302873
N   -2.00310499775491 0.55705862838353 1.43799368926698
N   1.68610545019663 -0.85857058320489 -0.97514395527358
N   -1.61898576900091 -0.33974837345907 -0.64243884075709
C   1.46038700147991 0.04564598992341 1.24454224935899
C   -0.87107316150821 1.9062320000521 -0.1670218717158
C   0.83039381175268 -1.09471029569725 1.55352332186706
C   -1.40505398259737 1.73443238417498 1.04660385070167
C   1.72122197431814 1.14627029876202 2.22027161699737
C   -0.18353292311222 3.15668367766678 -0.61036153760931
C   1.96621073016732 0.20417327929302 -0.11926498833868
C   -1.00419717989303 0.81649263022928 -1.13660242259988
C   0.94781789403997 -1.98644857431247 -0.68974117117665
C   -2.07538542735432 -0.55774003497661 0.63539437627362
H   0.44012472959395 -1.28625421977416 2.54168530868013
H   -1.37407556389757 2.5055128540503 1.8012543306458
H   1.35592652165173 2.09426842330034 1.83050292305983
H   1.23726908116783 0.94158337931623 3.17306580327959
H   2.78947402513264 1.26786454825355 2.39077243774483
H   -0.66454842715695 3.56383047071209 -1.49730741327549
H   -0.2025256685826 3.90640474135593 0.17760801050587
H   0.8514480357816 2.94234595292109 -0.86961335438813
H   -0.01804008235998 -2.84972667094353 0.86197897251858
H   -2.3500598523816 0.43822810556483 2.37215520057242
H   1.90270939239088 -0.71511006323784 -1.94966237137139
H   -1.66300805240129 -1.1285220104925 -1.27177278178659
*
