30
Coordinates from ORCA-job orca E -908.934106999543
  O           2.59980795728779      1.15629988572335     -0.51982013462935
  O          -0.58990458599999      0.87192001350642     -2.27928570076462
  O           0.64346730141803     -2.82301995692571     -1.50702520731530
  O          -2.53266573633793     -1.63277093606818      0.97698725167763
  N           0.59608945237792     -2.08986816896059      0.64846064755832
  N          -2.00036094446451      0.53369576469785      1.42887772455610
  N           1.70329316738440     -0.87592707356641     -0.96616041190361
  N          -1.62216922346504     -0.33358491980152     -0.66509664917768
  C           1.41527351282146      0.07481432845117      1.22665025349108
  C          -0.83512866288229      1.88884670799066     -0.14629426254183
  C           0.78132434652429     -1.06152137102841      1.54276131890810
  C          -1.37953476268639      1.70610808450183      1.06097342150448
  C           1.67085847014308      1.18466053478524      2.19344851997472
  C          -0.13045782369733      3.13832327330259     -0.56494618891025
  C           1.96680640247818      0.20068360046267     -0.12296664126596
  C          -0.98277653120617      0.81933463505827     -1.13590137266027
  C           0.95742137262029     -1.99834099698020     -0.67860954786614
  C          -2.09197292460174     -0.56462060549144      0.60535184485381
  H           0.36962107698591     -1.23585145272896      2.52534874145531
  H          -1.34031017562376      2.46401839507801      1.82835800601665
  H           1.36210045149045      2.13801454964415      1.77061250864555
  H           1.13513093328884      1.01662215562435      3.12564142625813
  H           2.73378856087097      1.26834391511655      2.41360523451764
  H          -0.60051324514376      3.56402416524102     -1.44904705026035
  H          -0.14893813417900      3.87624134978822      0.23422312189622
  H           0.90442566643578      2.91873739116503     -0.81973969332608
  H          -0.04796259212423     -2.83156348679810      0.86471817994722
  H          -2.36045778134673      0.40728063141728      2.35706141749424
  H           1.95594015391543     -0.75613682900581     -1.93504091911969
  H          -1.67959570228398     -1.10976358419934     -1.30854583901407
