! Engrad def2-TZVPPD wB97M-D3BJ 
%pal nprocs 8 end%pal nprocs 64 end 
%tddft Nroots 2 Iroot 2 
sf true 
end 
*xyz 0 3 
O   3.25212642 0.30673938 -0.87173591
O   -0.80339226 1.61678389 -2.30836757
O   0.39316876 -3.04995352 -0.26889158
O   -2.96170553 -1.83827475 -0.51094102
N   0.31425358 -1.39016343 1.24212957
N   -2.03229599 -0.26703829 0.94427635
N   1.55917186 -1.17926187 -0.72466353
N   -1.48206851 -0.28040003 -1.27730056
C   1.68867047 0.55669069 0.91151789
C   -0.98002301 1.65667427 0.03005991
C   0.38947254 -0.01706982 1.55348529
C   -0.94791322 0.6905249 1.17267264
C   2.51956475 1.52980821 1.6206835
C   -0.76903814 3.08225728 0.19594916
C   2.23836371 -0.04847004 -0.25714677
C   -1.10562301 1.06666007 -1.274349
C   0.74140558 -1.95300054 0.06225807
C   -2.25006662 -0.88828998 -0.26919711
H   0.56182573 0.09930644 2.63275894
H   -1.19041712 1.28911839 2.08188512
H   3.50663948 1.45445981 1.13066879
H   2.19016751 2.58041259 1.48999813
H   2.66202175 1.31114514 2.66510691
H   -1.62095495 3.56137155 0.7392881
H   0.10817854 3.24754087 0.84068966
H   -0.61638298 3.53616021 -0.79808473
H   -0.34425863 -1.98092917 1.71098312
H   -2.39261607 -0.78774766 1.73053417
H   1.89314654 -1.57944518 -1.59693114
H   -1.63816247 -0.57021544 -2.23347564
*
