! Engrad def2-TZVPPD wB97M-D3BJ 
%pal nprocs 8 end%pal nprocs 64 end 
%tddft 
 Iroot 2 Nroots 3 
sf true 
end 
*xyz 0 3 
O   1.09566875 -0.87700851 -0.00238825
C   0.51337423 0.21228355 0.53453043
C   -0.48216528 0.9289539 -0.34045592
H   1.24483958 1.04952506 0.84472642
H   0.03489525 -0.17470467 1.47536576
H   -0.56472088 2.00561233 -0.35978433
H   -1.03995286 0.34835143 -1.0830075
*
