! Engrad wB97M-D3BJ def2-TZVPPD 
%pal nprocs 8 end%pal nprocs 16 end 
%tddft nroots 2 Iroot 2
 sf true 
end 
*xyz 0 3 
O   0.57865539808902 0.98226040490884 -0.00030630368776
C   0.75348998546475 -0.34610095038202 -7.771971762e-05
C   -0.65356427935109 -0.58236607758167 0.00011923951582
H   1.26981308445213 -0.73792525058865 0.88626608676499
H   1.26954743289918 -0.7383663249339 -0.88638172748461
H   -1.2072890141678 -0.54209853070999 -0.92572590119342
H   -1.20702829040855 -0.54182361937111 0.9261063258026
*
