! Engrad def2-TZVPPD wB97M-D3BJ 
%pal nprocs 8 end%pal nprocs 64 end 
%tddft 
 Iroot 1 Nroots 3 
sf true 
end 
*xyz 0 3 
O   3.40406343 -0.24680676 -0.01212514
O   -0.35244971 0.7452748 -2.74738981
O   -0.23868828 -2.73136143 -0.83046085
O   -3.51497256 -0.73036025 0.00489569
N   -0.2802461 -1.36774428 1.02488602
N   -2.01813421 0.78043833 0.81743909
N   1.51761988 -1.31150507 -0.47469277
N   -1.8672019 -0.00930451 -1.3212439
C   1.60595233 0.12661803 1.37774726
C   -0.10222939 1.35868554 -0.47584779
C   0.147882 -0.10255603 1.5862071
C   -0.60825397 1.07872268 0.86816562
C   2.31808783 1.04348919 2.29896555
C   0.7578619 2.5057512 -0.63110583
C   2.25331449 -0.45488512 0.27756455
C   -0.72493204 0.72594816 -1.5596424
C   0.25090038 -1.85259281 -0.16005272
C   -2.49540197 -0.08674627 -0.1430491
H   -0.20123102 -0.06714782 2.61605649
H   -0.45262263 1.91646398 1.53295258
H   3.34304018 1.11824086 2.12309722
H   1.74381633 2.0118998 2.26361188
H   2.22895089 0.6571968 3.30647606
H   1.57287209 2.35034755 0.0295585
H   1.13143875 2.72183849 -1.65340898
H   0.10225678 3.29499847 -0.25744109
H   -1.23635735 -1.59014161 1.15390493
H   -2.48049931 0.67010052 1.7277951
H   1.96967467 -1.65831231 -1.31142232
H   -2.29383137 -0.56417824 -2.05954489
*
