7
Coordinates from ORCA-job orca E -153.931826506871
  O           0.66171193364201      1.32971497178580     -0.10664114036092
  C           0.56322400696003      0.18968158052934      0.25904490826645
  C          -0.44407274932467     -0.81208526849875     -0.21703815886078
  H           1.26706018830630     -0.19964329249317      1.02168066703986
  H           0.08047396872704     -1.67243922951538     -0.63420058555337
  H          -1.10813036521777     -0.38001803842136     -0.95968661348555
  H          -1.01806698309294     -1.17361072338648      0.63684092295431
