! EnGrad wB97M-D3BJ def2-TZVPPD 
%pal nprocs 8 end%pal nprocs 16 end 
%tddft 
 sf true 
 nroots 2 Iroot 2 end 
*xyz 0 3 
O   0.47001148412499 1.08460043226478 -0.00272275751258
C   0.60606431083772 -0.24825567750702 -0.00051431154462
C   -0.74858643395779 -0.75133893660449 0.00098426294915
H   1.15380513128582 -0.62184242196303 0.8795730235764
H   1.15279266322709 -0.62484625958387 -0.8799537598915
H   -1.31636300229444 -0.78075365571563 -0.92074957865676
H   -1.31552415322338 -0.77596348089074 0.9233831210799
*
