! Engrad wB97M-D3BJ def2-TZVPPD 
%pal nprocs 8 end%pal nprocs 16 end 
%tddft nroots 2 Iroot 2
 sf true 
end 
*xyz 0 3 
O   1.49772385387463 1.0134714949695 -0.04839563222481
C   0.94587428359179 -0.01056278507102 0.24389056870121
C   -0.30806692717232 -0.67269099726251 -0.23627216238273
H   1.4261816206917 -0.63514146415847 1.03134586498558
H   -0.04181977289011 -1.66258701585848 -0.60645874180405
H   -0.82489845346681 -0.10948890328921 -1.00909922373803
H   -0.96032827821808 -0.81669263792343 0.62498932646284
*
