! Engrad def2-TZVPPD wB97M-D3BJ 
%pal nprocs 8 end%pal nprocs 64 end 
%tddft Nroots 2 Iroot 1 
sf true 
end 
*xyz 0 3 
O   2.60087882 1.15547825 -0.51880812
O   -0.58801088 0.87158408 -2.2816843
O   0.6426954 -2.82507342 -1.50813609
O   -2.53356011 -1.6328171 0.97670139
N   0.59798001 -2.09124727 0.64756219
N   -1.99883714 0.53467156 1.42850645
N   1.70347044 -0.87344486 -0.96693391
N   -1.62511352 -0.33402012 -0.66430642
C   1.4174433 0.07801889 1.22738383
C   -0.82906568 1.88795305 -0.16213263
C   0.78084584 -1.06185093 1.54271979
C   -1.3837298 1.70506655 1.07724105
C   1.67049433 1.18609952 2.19487156
C   -0.13235511 3.13586058 -0.56441068
C   1.96501275 0.20184082 -0.12392867
C   -0.98448397 0.82088099 -1.1305539
C   0.95866125 -1.99752859 -0.67916658
C   -2.09376704 -0.56424819 0.60381802
H   0.38070073 -1.23210093 2.5248886
H   -1.35113253 2.46433513 1.82818939
H   1.37121212 2.13319919 1.77343166
H   1.13681254 1.01649834 3.12503819
H   2.7335241 1.26472465 2.41369346
H   -0.60167895 3.5668213 -1.44911358
H   -0.16338312 3.87707257 0.23359536
H   0.90807921 2.92103059 -0.8204812
H   -0.04303046 -2.82978786 0.86646131
H   -2.36472121 0.40637534 2.35888873
H   1.95656984 -0.75320378 -1.93986957
H   -1.68591647 -1.1098648 -1.30461989
*
