7
Coordinates from ORCA-job orca E -153.887840740526
  O           0.03086433783967      0.80148468845819     -0.00005563858945
  C           0.71416968294912     -0.42017532647479      0.00015599961936
  C          -0.72827687077614     -0.46920241591820     -0.00017815761906
  H           1.25336323103377     -0.65443161655617      0.91204564205151
  H           1.25302916138035     -0.65494399008618     -0.91185132613064
  H          -1.26068461481968     -0.66043234567800     -0.92046121352970
  H          -1.26026492760708     -0.66069899374485      0.92034469419798
