! Engrad def2-TZVPPD wB97M-D3BJ 
%pal nprocs 8 end%pal nprocs 64 end 
%tddft 
 Iroot 2 Nroots 3 
sf true 
end 
*xyz 0 3 
O   3.25537963 0.89979732 -0.08799404
O   -0.8226691 0.64937359 -2.69922431
O   0.64495487 -2.75132507 -1.04804927
O   -3.48558614 -1.40881505 0.54302208
N   0.22810204 -1.34136508 0.78881153
N   -2.12680655 0.31770832 1.07756642
N   1.90953101 -0.8097401 -0.71330216
N   -2.08974304 -0.60073088 -1.06112403
C   1.58220025 0.48941468 1.3293776
C   -0.54905634 1.2114207 -0.50204411
C   0.27625743 -0.06280568 1.44688516
C   -0.82736317 0.96121556 0.90031245
C   2.13588941 1.42474165 2.28924561
C   0.43330516 2.21825276 -0.85474949
C   2.26946817 0.23241695 0.14071408
C   -1.17299554 0.37187944 -1.49825743
C   0.87604562 -1.69663536 -0.38280008
C   -2.64484057 -0.61965208 0.2094369
H   0.02788876 -0.05414101 2.53683041
H   -0.83350295 1.77727611 1.56620424
H   1.35677914 2.09304716 2.72681864
H   2.60533441 0.86646868 3.18737444
H   3.01758271 2.03238508 1.9652422
H   -0.06987642 3.06076826 -1.40710975
H   0.76248911 2.7078195 0.1035736
H   1.31864611 1.91036944 -1.3334923
H   -0.4751019 -2.03886497 0.982139
H   -2.52900264 0.33479883 2.02006486
H   2.44497465 -0.97872298 -1.54666025
H   -2.70327551 -1.06034647 -1.67882916
*
