! Engrad def2-TZVPPD wB97M-D3BJ 
%pal nprocs 8 end%pal nprocs 64 end 
%tddft 
 Iroot 2 Nroots 3 
sf true 
end 
*xyz 0 3 
O   3.40840634 0.84320284 0.10586586
O   -0.79924245 0.79258208 -2.7499386
O   1.20573624 -2.94607117 -0.66828068
O   -3.68022586 -1.45561869 0.04307649
N   0.26535282 -1.42800173 0.79061508
N   -2.23798726 0.04159692 0.91692177
N   1.97037699 -0.82509783 -0.55787403
N   -2.15831739 -0.35652666 -1.29143597
C   1.48199602 0.60004265 1.32822496
C   -0.59328376 1.25498351 -0.46702894
C   0.25918967 -0.19304279 1.46326146
C   -0.93389749 0.77920155 0.89670318
C   1.81781618 1.66269759 2.37844011
C   0.25524473 2.47590386 -0.58560484
C   2.3470484 0.24891488 0.23161255
C   -1.10866408 0.52625383 -1.59672177
C   1.13206089 -1.85045089 -0.24406684
C   -2.71362461 -0.68701034 -0.0782337
H   -0.08856826 -0.44218209 2.45002668
H   -1.12085254 1.5778716 1.57767335
H   1.89508772 1.42863034 3.40215907
H   2.72303097 2.14341644 2.00153155
H   0.99573879 2.35559207 2.48994423
H   -0.19228802 3.21913277 -1.37986324
H   0.26272322 3.0362489 0.29657555
H   1.25265809 2.25947685 -0.93413734
H   -0.59441966 -2.00374627 0.81030224
H   -2.63728409 -0.15607327 1.84478685
H   2.70930121 -0.98380489 -1.22598206
H   -2.53232936 -0.79169183 -2.12355029
*
