! Engrad def2-TZVPPD wB97M-D3BJ 
%pal nprocs 8 end%pal nprocs 64 end 
%tddft 
 Iroot 2 Nroots 3 
sf true 
end 
*xyz 0 3 
O   0.83713592 -0.42672662 1.00326581
C   0.42178315 -0.31791626 -0.33809062
C   -0.12764875 1.00273789 -0.5178152
H   -0.33736713 -1.15183411 -0.63658937
H   1.26175337 -0.57551355 -1.04599743
H   0.17613587 1.59357463 -1.32079301
H   -0.61580172 1.42194723 0.39388645
*
