! Engrad def2-TZVPPD wB97M-D3BJ 
%pal nprocs 8 end%pal nprocs 64 end 
%tddft Nroots 2 Iroot 1 
sf true 
end 
*xyz 0 3 
O   3.86828067 0.37467699 -0.08506424
O   -1.52122646 1.19027113 -2.44062832
O   0.93575628 -2.94177479 -1.05637016
O   -3.64322511 -1.277388 0.70484716
N   0.20471066 -1.35498704 0.37409391
N   -1.91202395 0.07503462 1.3706976
N   2.3209846 -1.20531659 -0.66154885
N   -2.50058364 -0.08641485 -0.83435971
C   1.81730582 0.46393599 0.96506246
C   -0.79072639 1.46764119 -0.20717762
C   0.50613826 -0.20342487 1.23877339
C   -0.66554078 0.81461355 1.12795034
C   2.16939294 1.5932093 1.92070124
C   -0.03683845 2.72267976 -0.49021426
C   2.78724398 -0.10683741 0.07782721
C   -1.5849759 0.8259315 -1.25855944
C   1.12722488 -1.89212641 -0.49913569
C   -2.75116837 -0.49467591 0.46348294
H   0.52376613 -0.48528466 2.28413199
H   -0.64245772 1.5717076 1.91517405
H   3.0606221 1.24670429 2.44207691
H   2.27525469 2.5186536 1.39539184
H   1.34188851 1.74900628 2.67913973
H   -0.47946638 3.55730181 0.09814933
H   1.02377081 2.68181086 -0.32496919
H   -0.17254081 2.8874223 -1.57185075
H   -0.60086155 -1.94062288 0.6201387
H   -2.27748178 0.03713433 2.26434822
H   3.01757914 -1.62517941 -1.30126554
H   -3.02446896 -0.58805485 -1.58464418
*
