7
Coordinates from ORCA-job orca E -153.865700173353
  O           0.13380741814321      0.87370059812104     -0.00025542654105
  C           0.67431557100130     -0.37254056583595      0.00012630547559
  C          -0.72927815397037     -0.56961185040498     -0.00015343347587
  H           1.22790858764226     -0.65078168902298      0.89866970484813
  H           1.22753271753198     -0.65096199073241     -0.89865079044189
  H          -1.26634042500595     -0.67495493336245     -0.92741459338332
  H          -1.26574571534243     -0.67324956876227      0.92767823351842
