! Engrad def2-TZVPPD wB97M-D3BJ 
%pal nprocs 8 end%pal nprocs 64 end 
%tddft 
 Iroot 1 Nroots 3 
sf true 
end 
*xyz 0 3 
O   -0.50443945 0.72151876 0.12876662
C   0.74644503 0.2612575 0.48963191
C   1.1003066 -0.85107176 -0.42013841
H   0.55913813 -0.24917527 1.43546781
H   1.41207272 1.1262781 0.6332269
H   0.73532604 -1.81013775 -0.21682704
H   1.51506653 -0.63950947 -1.38962819
*
