! Engrad def2-TZVPPD wB97M-D3BJ 
%pal nprocs 8 end%pal nprocs 64 end 
%tddft Nroots 2 Iroot 1 
sf true 
end 
*xyz 0 3 
O   3.32614588 0.75521619 -0.26285517
O   -0.67607535 0.82878436 -2.51192629
O   0.67445862 -2.82708529 -1.14422365
O   -3.55145275 -1.08340475 0.39401999
N   0.21781421 -1.5965434 0.7009262
N   -2.00382671 0.3526828 1.25358875
N   2.0123823 -1.05574661 -0.67547095
N   -1.91965176 -0.31301471 -0.97378339
C   1.51010905 0.40854811 1.16508043
C   -0.49626443 1.41810059 -0.21702384
C   0.33799409 -0.4174813 1.4804816
C   -0.59776271 0.75393899 1.14558967
C   1.96738738 1.47218903 2.0844613
C   -0.37515237 2.89385557 -0.32847683
C   2.35150342 0.09402601 0.03234377
C   -0.98106656 0.65085816 -1.34586121
C   0.94036513 -1.88931497 -0.43636261
C   -2.56452953 -0.40061512 0.25651525
H   0.26477354 -0.65227964 2.53631983
H   -0.42520692 1.49640513 1.91326684
H   1.82225963 2.46735214 1.68192665
H   1.49282206 1.4001535 3.06131381
H   3.03742403 1.36711227 2.19716137
H   -1.28303051 3.35250777 0.0911283
H   0.4619798 3.2575593 0.26741467
H   -0.25114871 3.18071439 -1.37179196
H   -0.58543561 -2.18348115 0.81980948
H   -2.44933614 0.18965104 2.14193018
H   2.55134338 -1.24639302 -1.52184819
H   -2.30459415 -0.87121904 -1.71538619
*
