! EnGrad wB97M-D3BJ def2-TZVPPD 
%pal nprocs 8 end%pal nprocs 16 end 
%tddft 
 sf true 
 nroots 2 Iroot 1 end 
*xyz 0 3 
O   0.32110923146737 0.99991012558959 -0.0023312460445
C   0.6323037286412 -0.30301530194779 -0.00045965901849
C   -0.73907922668142 -0.70040712333927 0.00062908804915
H   1.18862664372379 -0.63634271433421 0.88590567425365
H   1.18869583121598 -0.63880470653376 -0.88580203658211
H   -1.29533206700735 -0.72160283603583 -0.92460845917689
H   -1.29412414135957 -0.71813744339873 0.92666663851918
*
