7
Coordinates from ORCA-job orca E -153.931360130297
  O           0.51016498854051      1.33413689015081      0.09041610650684
  C           0.56698275218257      0.18921364929043     -0.27666143102802
  C          -0.42838049594851     -0.82685591886906      0.20756781552015
  H           0.08992553579456     -1.64097579750666      0.71611245274910
  H           1.35091593171520     -0.15102976246905     -0.97635854169386
  H          -0.95176434568457     -1.26932879591332     -0.64129413820584
  H          -1.13564436659977     -0.35356026468316      0.88021773615163
