! Engrad def2-TZVPPD wB97M-D3BJ 
%pal nprocs 8 end%pal nprocs 64 end 
%tddft 
 Iroot 1 Nroots 3 
sf true 
end 
*xyz 0 3 
O   2.77093387 -0.95389512 -2.50036436
O   -2.49832932 1.41985078 -1.2504084
O   -1.26828524 -2.47352063 -1.09432128
O   -2.46856701 0.81047295 3.17464179
N   0.07289448 -1.52689103 0.42789535
N   -0.3779487 1.01751215 2.15558839
N   0.781026 -1.74783309 -1.72849257
N   -2.45407849 0.94820218 0.89550678
C   2.25841962 -0.51375987 -0.21383205
C   -0.35671365 1.27515035 -0.2348972
C   1.12310013 -0.47196682 0.76703022
C   0.46935924 0.92554452 0.95492594
C   3.66111098 -0.30299242 0.21222142
C   0.34968239 1.75028001 -1.46893019
C   1.97994974 -1.08688792 -1.53650774
C   -1.76219522 1.25437478 -0.28669478
C   -0.26890594 -1.91331682 -0.81942147
C   -1.78399009 0.85895432 2.14849134
H   1.45039719 -0.68780397 1.82951086
H   1.36639912 1.59065231 1.04664651
H   4.17194798 -1.2894817 0.48685259
H   4.30417738 0.0787269 -0.53296694
H   3.61608991 0.34294994 1.06786195
H   -0.14728354 2.56810079 -1.98956678
H   1.3300757 2.02020429 -1.15759318
H   0.35881577 0.9303689 -2.22283258
H   -0.72272388 -1.56776588 1.09258568
H   0.12073699 1.20490177 3.000933
H   0.53408998 -2.09626914 -2.64628273
H   -3.5047823 0.90830603 0.91437184
*
