! EnGrad wB97M-D3BJ def2-TZVPPD 
%pal nprocs 8 end%pal nprocs 16 end 
%tddft 
 sf true 
 nroots 2 Iroot 2 end 
*xyz 0 3 
O   0.42245029675635 1.0590023128504 -0.00284540215133
C   0.61442442050712 -0.26588958769893 -0.00056169696691
C   -0.74546158619117 -0.7382197259494 0.00080057186267
H   1.16530086353868 -0.62698947191987 0.88147214991302
H   1.16505137163841 -0.63015000635531 -0.88142842615316
H   -1.31048414490077 -0.76017708243126 -0.92174652331336
H   -1.30908122134862 -0.75597643849563 0.92430932680906
*
