30
Coordinates from ORCA-job orca E -908.930609389092
  O           2.92812790382575      1.24946944897342     -0.49542113630048
  O          -0.53235617682653      0.42689048907514     -1.86384177046814
  O           1.41271911698873     -2.83522561491932     -1.79348577361943
  O          -3.11498066377766     -1.36854654644291      1.40034096758055
  N           0.76606334840454     -2.01756093118578      0.23059647534687
  N          -2.35530295435989      0.76512369835537      1.65863191754282
  N           2.20718443763049     -0.81020699717255     -1.09728477850564
  N          -1.92341079504820     -0.38798143178261     -0.27991706501035
  C           1.47635868419297      0.12008908276034      1.00275634212733
  C          -0.94639750256071      1.79416551143382      0.03439663245292
  C           0.79602728514632     -1.02027657478737      1.17437558070989
  C          -1.61856758742924      1.83348049825846      1.18869924766439
  C           1.58575632107101      1.18529724532976      2.04550308384061
  C          -0.13659692716481      2.93107611574173     -0.50046890347780
  C           2.25907046878242      0.27280333661810     -0.22770607290108
  C          -1.08222353411612      0.59803904070662     -0.79782936199799
  C           1.45594834931717     -1.95726340728851     -0.96456954475941
  C          -2.51647750458673     -0.41020566245228      0.96171319302337
  H           0.21945021187556     -1.21702765820364      2.06636243774656
  H          -1.59293546560119      2.69356849008261      1.84020302156843
  H           1.35443644185232      2.16268240779563      1.63106332386689
  H           0.91006526081661      0.98295099040615      2.87387705834302
  H           2.60307175455550      1.23848523684562      2.43010939032778
  H          -0.52330311788565      3.24973895398519     -1.46662643647404
  H          -0.16345168529887      3.77624770816549      0.18383839964182
  H           0.89938702196937      2.63701438129619     -0.65425204420021
  H           0.22615484197541     -2.85112963526399      0.37811824015563
  H          -2.81150266957186      0.80323587837529      2.55187907206289
  H           2.68577778795514     -0.70182276463619     -1.97731667055043
  H          -2.01549265213184     -1.22811129006987     -0.82914482573678
