! Engrad def2-TZVPPD wB97M-D3BJ 
%pal nprocs 8 end%pal nprocs 32 end 
%tddft Nroots 2 Iroot 1 
sf true 
end 
*xyz 0 3 
O   0.44559883 1.31965713 0.00172126
C   0.41954825 -0.29170894 -0.02277354
C   -0.8502919 -1.20047109 0.02450141
H   0.89120937 -0.58946511 0.86172968
H   1.04304011 -0.56921778 -0.91134178
H   -1.44708018 -1.24873289 -0.88389945
H   -1.46496165 -0.94647406 0.87542052
*
