30
Coordinates from ORCA-job orca E -908.782930247631
  O           3.56235672761980      0.57186280033240     -0.09749512169263
  O          -0.89176877668240      0.92249561092592     -2.54008865296518
  O           0.77101615134192     -2.83667269177212     -1.18251795463497
  O          -3.60127495955212     -1.07781237591280      0.45886971177169
  N           0.21755988559082     -1.53898577124274      0.58867122020844
  N          -2.01771321501993      0.34789861605209      1.27024414190360
  N           2.16692696566982     -1.13883316594359     -0.61092592631102
  N          -2.03622628985932     -0.27863693256300     -0.98239310780744
  C           1.58774902710875      0.37835156510342      1.17585131583690
  C          -0.57225018348068      1.45173556216898     -0.24620713336816
  C           0.35027562819553     -0.37017826956448      1.41329133235012
  C          -0.60128822897967      0.75490572907211      1.12685472148237
  C           2.01760044496603      1.46288868778985      2.08299163370882
  C          -0.45600939555954      2.91822880857599     -0.32851810375712
  C           2.52538547186248     -0.02369795590124      0.12502288949849
  C          -1.12618320295259      0.69638635315043     -1.37357497865317
  C           1.01937827982770     -1.90260229348818     -0.45539080413133
  C          -2.62352474463267     -0.38724516331242      0.27957445177017
  H           0.25528848378330     -0.65902094948640      2.46727891172198
  H          -0.43517654468195      1.52348839303361      1.87629234996585
  H           1.73938127827631      2.44917524623469      1.69084311531494
  H           1.57040702912221      1.36273421891736      3.07086060166239
  H           3.10241935864181      1.46967809303546      2.15612067593954
  H          -1.32480362579319      3.40146147446257      0.13461981022985
  H           0.42263037243039      3.27593215588981      0.21590999315652
  H          -0.39863317331720      3.23683038765689     -1.36509181050017
  H          -0.61331277168684     -2.09734346275136      0.67340621812339
  H          -2.43590474086844      0.20360424391382      2.17455473450559
  H           2.76270221430253     -1.39376307353369     -1.38099937871033
  H          -2.48440746567289     -0.80786584084338     -1.71345485661910
