7
Coordinates from ORCA-job orca E -153.931973359270
  O           0.55520468409450      1.35266518537445      0.09137100461264
  C           0.55294568119495      0.20336639245731     -0.25973156114805
  C          -0.43034714435877     -0.82715629103059      0.20930635441197
  H           0.10709131351004     -1.65115383646049      0.68028249652831
  H           1.31266476227656     -0.15947161149459     -0.97897072926009
  H          -0.95676426955339     -1.24340441691848     -0.65057461292571
  H          -1.13859502716390     -0.39324542192759      0.90831704778092
