! Engrad def2-TZVPPD wB97M-D3BJ 
%pal nprocs 8 end%pal nprocs 64 end 
%tddft 
Iroot 3 Nroots 3 
sf true 
end 
*xyz 0 3 
O   3.0630271359604 0.64714441859332 -0.81710751722688
O   -0.29787763131273 1.1993167265903 -2.26827149235738
O   0.48591300371446 -3.06468037812078 -0.65997787938981
O   -3.29150918130838 -1.43172355068124 -0.16553149468672
N   0.25679591571788 -1.56315537434669 1.02112558314848
N   -2.12225755096039 0.03213043119821 1.12661118641672
N   1.66879335346731 -1.13415371460491 -0.783705693462
N   -1.5875592853677 -0.26844940290301 -1.12297509284777
C   1.41433614467729 0.60178564137192 0.87755783238254
C   -0.44102754903123 1.48264335509898 0.08906858963734
C   0.37057988536456 -0.24067417939075 1.58567391358298
C   -0.84957575358101 0.67869051267765 1.33537069568969
C   2.12006446389738 1.64490673534676 1.67133472342105
C   -0.45426343072109 2.97017439683208 0.09313358399038
C   2.139628492981 0.06651217751183 -0.29332878908301
C   -0.73728553172491 0.82325101346799 -1.20669303379941
C   0.76717892124857 -1.99570569790767 -0.16950384379923
C   -2.40120728388276 -0.62482542120391 -0.04389130647273
H   0.58890463592192 -0.33961508791909 2.65067292786903
H   -0.9505556701929 1.36337436677421 2.17465787108082
H   2.59069500118425 2.37007810988083 1.01483048049694
H   1.44395747975201 2.15128678839043 2.35719618777751
H   2.90724160852555 1.1770117306417 2.26825658622889
H   -1.48339925257067 3.33502029665835 0.15558083757796
H   0.09000507322487 3.36880519380631 0.94655839671761
H   -0.01527700973443 3.34719976647183 -0.82613293971494
H   -0.42522538624961 -2.19288444465457 1.40660049073332
H   -2.68139555473995 -0.27091295013634 1.90465303483171
H   2.09202295210388 -1.48119309744284 -1.62897361060878
H   -1.80812799636355 -0.73635836200097 -1.98819022813429
*
