30
Coordinates from ORCA-job orca E -908.730803908782
  O           3.64349577767894      0.35800079043883     -0.43490663687913
  O          -1.18485055487252      1.21766510868520     -2.61976943564785
  O           0.48029428214752     -2.74568122408155     -0.79734730437408
  O          -3.06714956671160     -1.71226714544309      0.20803732521913
  N           0.33588349427781     -1.30364158081368      0.95611297491725
  N          -2.06367012609544      0.12714858867198      1.10260738890222
  N           1.74693985545162     -0.84733313161870     -0.82064309203246
  N          -1.74658587866460     -0.41746390870414     -1.13073467887349
  C           1.97230735365221      0.39259730795611      1.22374985007031
  C          -1.01163906008110      1.69621414991699     -0.31138755648474
  C           0.43560979580086      0.04973641871759      1.44436179324572
  C          -0.88868862442324      0.96305996454597      1.04150460167677
  C           2.76535863593059      1.00671008191695      2.29626523868654
  C          -1.06009223647187      3.16082046696323     -0.40444239584619
  C           2.54124214631732      0.01059965400716     -0.04010153773947
  C          -1.30477021824852      0.86177571359204     -1.46239819205814
  C           0.82115919401483     -1.71314091672387     -0.26811578540928
  C          -2.34602448024713     -0.75272449026917      0.08059433690509
  H           0.31021506289462     -0.01605100602515      2.52839183280293
  H          -0.96016272998612      1.71699523222161      1.82255220824360
  H           3.80815411184517      1.07934542310577      2.00360424989441
  H           2.39704909622147      2.00662764533407      2.54793949619987
  H           2.68440584489922      0.41581204887244      3.21607618394579
  H          -2.00541673542525      3.53086225097162      0.01586137620595
  H          -0.26108895913052      3.62924897043114      0.16988082880019
  H          -1.00961217306203      3.47292641316306     -1.44341609280294
  H          -0.31535881453586     -1.95011712256968      1.36843625828196
  H          -2.48921980843883     -0.11018709962154      1.98231862049036
  H           2.17086764189127     -1.16798483275939     -1.67609755649776
  H          -1.94605232662880     -1.04455377088182     -1.89433429984255
