! EnGrad wB97M-D3BJ def2-TZVPPD 
%pal nprocs 8 end%pal nprocs 16 end 
%tddft 
 sf true 
 nroots 2 Iroot 2 end 
*xyz 0 3 
O   0.81478796614718 1.34797440473956 -0.09737036911789
C   0.56052770547986 0.21084785704024 0.18526209069956
C   -0.47797615818591 -0.79604848644173 -0.20232608209513
H   1.24476264021053 -0.26935569000663 0.92569277713491
H   0.04627427798008 -1.66589384253354 -0.59728242358828
H   -1.20536507948373 -0.43556870832051 -0.92587396540881
H   -0.98081135214802 -1.11035553447737 0.71189797237565
*
