! Engrad def2-TZVPPD wB97M-D3BJ 
%pal nprocs 8 end%pal nprocs 64 end 
%tddft 
 Iroot 1 Nroots 3 
sf true 
end 
*xyz 0 3 
O   3.07478092 -0.75852245 -2.10820187
O   -2.26525562 1.26615956 -1.59112403
O   -1.20928803 -2.13253333 -1.25420307
O   -2.79811354 0.58024313 2.79290651
N   0.14517244 -1.77195519 0.54869009
N   -0.66888693 0.94411156 2.10194093
N   0.87122072 -1.37788644 -1.62804049
N   -2.45896888 0.94398639 0.62715195
C   2.24148635 -0.52755401 0.15125097
C   -0.28754506 1.19292029 -0.33246613
C   1.04463527 -0.68317486 1.00439555
C   0.31521139 0.77323229 1.02001474
C   3.45724826 0.02092217 0.67460808
C   0.51800633 1.61130344 -1.54476804
C   2.13290823 -0.91440066 -1.30777624
C   -1.69367171 1.11288443 -0.57037815
C   -0.15036732 -1.78522068 -0.76371783
C   -2.02070052 0.77663141 1.91315022
H   1.36646861 -1.01372421 1.99872154
H   1.10269205 1.55449315 1.11904749
H   3.42745376 1.08687723 0.740049
H   3.61494287 -0.31665086 1.66588539
H   4.31951443 -0.29991391 0.0901406
H   0.34833307 0.98516296 -2.40878768
H   0.10849424 2.58461413 -1.77447038
H   1.60580872 1.64804994 -1.30625059
H   -0.69076485 -1.92330382 1.06926863
H   -0.51294611 0.41396227 2.9767217
H   0.7420698 -1.58328927 -2.5986751
H   -3.40363587 0.71957079 0.46514509
*
