! Engrad def2-TZVPPD wB97M-D3BJ 
%pal nprocs 8 end%pal nprocs 64 end 
%tddft Nroots 2 Iroot 2 
sf true 
end 
*xyz 0 3 
O   2.29630822 1.30424031 -0.43711494
O   -0.62088353 1.00440464 -2.46036718
O   0.57728639 -2.81014922 -1.38220102
O   -2.64278405 -1.59320798 0.87567036
N   0.4832825 -2.03173446 0.78734094
N   -1.64523571 0.38258644 1.33370371
N   1.70790073 -0.89606422 -0.84821026
N   -1.56125829 -0.41459533 -0.81109
C   1.5797316 -0.02433091 1.39807123
C   -0.81971984 1.92434762 -0.32928244
C   0.86389976 -1.13977794 1.73446363
C   -1.17718553 1.67552118 1.01861286
C   1.93330145 0.97964482 2.45220135
C   -0.54939841 3.31403342 -0.83371113
C   1.87980917 0.21701284 -0.0130733
C   -1.01760815 0.84812935 -1.30142338
C   0.95259909 -2.01943114 -0.53865922
C   -1.98101441 -0.64893581 0.48969786
H   0.64711432 -1.38249469 2.79765731
H   -1.18600661 2.39214644 1.89199827
H   1.62362652 2.03462415 2.30048213
H   1.5083917 0.66761599 3.43735788
H   2.97049079 1.07411469 2.55748461
H   0.38570509 3.31353811 -1.44967765
H   -1.35990605 3.59916323 -1.48992785
H   -0.52019771 4.10532855 -0.01611741
H   -0.06173015 -2.87430767 0.94202646
H   -1.91063314 0.08934115 2.35667177
H   2.11525921 -0.9294937 -1.81470569
H   -1.83332804 -1.10500934 -1.53512147
*
