! Engrad def2-TZVPPD wB97M-D3BJ 
%pal nprocs 8 end%pal nprocs 64 end 
%tddft Nroots 2 Iroot 2 
sf true 
end 
*xyz 0 3 
O   2.45835186 1.2718124 -0.31765097
O   -0.82294938 0.81293592 -2.40145203
O   0.52896249 -2.63089299 -1.61111651
O   -2.3937323 -1.5255382 1.16376755
N   0.63398129 -2.15486302 0.61056069
N   -1.84130124 0.66514757 1.44670694
N   1.5933354 -0.7335015 -0.92730477
N   -1.66840307 -0.30865079 -0.62918559
C   1.50904117 -0.06328346 1.38236425
C   -0.91934257 1.96582131 -0.32787915
C   0.88124255 -1.25644328 1.61424535
C   -1.28397817 1.82202926 0.94968696
C   1.78758213 0.92934657 2.45198783
C   -0.27932361 3.199165 -0.88601454
C   1.90580215 0.24088246 0.0273263
C   -1.11415239 0.82907499 -1.22860707
C   0.896227 -1.90005914 -0.72061674
C   -2.00650934 -0.4753773 0.69232825
H   0.5541159 -1.53336856 2.58476563
H   -1.16241587 2.61437639 1.6678092
H   1.35297211 1.89026489 2.19583726
H   1.39151134 0.61465254 3.4095953
H   2.85446018 1.10536328 2.5510871
H   -0.83575394 3.56467005 -1.75344387
H   -0.24411033 3.99224763 -0.14364394
H   0.74349207 2.98409114 -1.21601839
H   0.03021914 -2.93549543 0.78299895
H   -2.07511206 0.5847654 2.41251357
H   1.75234797 -0.49011808 -1.90222029
H   -1.75179869 -1.12027686 -1.22373668
*
