! Engrad def2-TZVPPD wB97M-D3BJ 
%pal nprocs 8 end%pal nprocs 64 end 
%tddft 
 Iroot 2 Nroots 3 
sf true 
end 
*xyz 0 3 
O   3.28522949 1.14466589 -0.18176431
O   -0.98638085 0.63696914 -2.7155676
O   1.03279898 -2.73409089 -0.92827562
O   -3.78969651 -1.28814164 0.24644304
N   0.3988097 -1.48508871 0.88642007
N   -2.18223939 0.10333694 1.02068912
N   2.06392345 -0.79174982 -0.56330001
N   -2.21223947 -0.47649974 -1.22921316
C   1.62645951 0.59532288 1.39887252
C   -0.62567259 1.16345445 -0.47227895
C   0.36364315 -0.19234851 1.54658027
C   -0.86048516 0.70094942 0.94935106
C   2.00867964 1.44874222 2.45905975
C   0.30045994 2.26709306 -0.80646868
C   2.39318775 0.40656758 0.18034254
C   -1.23732475 0.44529318 -1.54332129
C   1.10355896 -1.78581359 -0.28423576
C   -2.74730036 -0.70366699 -0.02149286
H   0.07338804 -0.29125909 2.59307754
H   -0.83770385 1.68440221 1.40354624
H   2.13110331 1.00370832 3.42579785
H   2.92025567 2.07879377 2.34814649
H   1.19213732 2.22504468 2.6262559
H   -0.26975979 3.15264457 -1.11778996
H   0.85483982 2.62560672 -0.02575009
H   0.86194057 1.85815038 -1.54191983
H   -0.33033539 -2.09276492 1.09897198
H   -2.54043804 -0.13132214 1.89169101
H   2.85544617 -1.15861065 -1.13515799
H   -2.65055494 -0.93938235 -1.99259577
*
