! Engrad def2-TZVPPD wB97M-D3BJ 
%pal nprocs 8 end%pal nprocs 64 end 
 %tddft nroots 2 Iroot 2 
sf true 
end 
*xyz 0 3 
O   3.16761531494223 0.4418170930476 -0.9096635282554
O   -0.58697303010902 1.4878896450933 -2.30804891425919
O   0.41169721148559 -3.07546494164988 -0.40674000119065
O   -3.03955327717596 -1.73607577233092 -0.37381130877209
N   0.32691791854486 -1.45803388567895 1.18201169056105
N   -2.15114292592293 -0.1443452236317 0.98877004390847
N   1.55194962551424 -1.14760763877325 -0.77834750841504
N   -1.48434350422087 -0.3028475344918 -1.22822817108048
C   1.7270902987932 0.51332897345827 0.9479215155581
C   -0.80366166456574 1.60691008193133 0.04826884729193
C   0.37781819472413 -0.0688411633853 1.56301997701313
C   -1.03805383478932 0.71904129431483 1.25012279299346
C   2.45127923355457 1.56931019820454 1.663699862526
C   -0.67472517611395 3.06379673343855 0.17367673875549
C   2.22148240527549 -0.02644819733645 -0.3027402522091
C   -0.92562691024299 0.97427113986451 -1.26123549007758
C   0.72778197955208 -1.97127385949821 -0.02871149829249
C   -2.28464070910031 -0.8109019565831 -0.20521608642636
H   0.49679609584346 -0.04361798460191 2.64919401589296
H   -1.26743330234551 1.33240015353037 2.11787225141992
H   3.4002937401192 1.7793211280518 1.18100563038913
H   1.86571620461463 2.50022380776786 1.69207040724024
H   2.61234157360791 1.28804630102746 2.70864027943586
H   -1.58697942392352 3.49039362947505 0.60558440248904
H   0.13359672412401 3.32766409379103 0.86761959765161
H   -0.48497528429066 3.51876118366067 -0.79292774467866
H   -0.29748147249669 -2.07768535195799 1.66890369129593
H   -2.70006028571126 -0.52205254414575 1.7402198882169
H   1.90543055040216 -1.55198403219414 -1.62983541336785
H   -1.59955627008907 -0.76099537039782 -2.11849571561431
*
