30
Coordinates from ORCA-job orca E -908.930441998733
  O           2.60755995570874      1.15850437023835     -0.55354945613576
  O          -0.59826346426330      0.84447758711610     -2.27373391227166
  O           0.70197009008647     -2.86705120931525     -1.45561026766168
  O          -2.58004812106220     -1.64631707366600      0.97024373552170
  N           0.58435044485608     -2.05283432153505      0.66810465722742
  N          -1.97284087653373      0.49511687532162      1.44646726938971
  N           1.71157274292992     -0.88089625124491     -0.96155459188622
  N          -1.64207303887201     -0.35504841137830     -0.66264798109442
  C           1.33847664400016      0.15344636488243      1.18037794222278
  C          -0.77976559109863      1.83267361416180     -0.12086977176650
  C           0.73361571333666     -0.98987387529303      1.52885041297468
  C          -1.32530484148052      1.65359922992931      1.08644297123228
  C           1.60744612634177      1.27181565691989      2.13498443236794
  C          -0.07955870124976      3.08479999449881     -0.54081704069087
  C           1.94602147558489      0.22545576119464     -0.14953959458552
  C          -0.97358540894349      0.78466302166774     -1.12488666080335
  C           0.97704799931099     -2.00516938532189     -0.65206595003075
  C          -2.10828988299609     -0.58855095965004      0.60836316735227
  H           0.31877595643475     -1.14348199197092      2.51335866640092
  H          -1.26550823395972      2.40422154326631      1.85935596773283
  H           1.37192783565882      2.23198542367890      1.68415645733799
  H           1.02498368966527      1.15137675057488      3.04642463204257
  H           2.66288047815093      1.30062473063158      2.40139137394800
  H          -0.56722283359009      3.51643138665617     -1.41250496451677
  H          -0.08679201579952      3.81679869104717      0.26406055524813
  H           0.95080914536376      2.87189892584079     -0.81611184477340
  H          -0.04440574001544     -2.80270052595438      0.90041619209000
  H          -2.33635772481135      0.36992006457231      2.37355695952629
  H           2.00590191759882     -0.80093023539356     -1.92251389748423
  H          -1.73072374035219     -1.11995575147549     -1.31554945891445
