! Engrad def2-TZVPPD wB97M-D3BJ 
%pal nprocs 8 end%pal nprocs 64 end 
%tddft 
 Iroot 1 Nroots 3 
sf true 
end 
*xyz 0 3 
O   3.55641914 -0.56365858 -0.13564749
O   -0.56807278 0.55550782 -2.7710296
O   -0.33035754 -2.7354595 -0.6360382
O   -3.66031829 -0.50332808 0.37059822
N   -0.2034553 -1.24762111 1.08407597
N   -1.97346762 0.8435265 0.94996196
N   1.51898461 -1.47162914 -0.39309632
N   -2.17970525 0.10859598 -1.27102336
C   1.81753096 0.15471719 1.30368397
C   -0.26003049 1.43021755 -0.59218404
C   0.30351502 0.02833102 1.52343092
C   -0.58859154 1.25210447 0.79804698
C   2.64595812 1.19621429 2.03841685
C   0.88352447 2.22014631 -1.0121664
C   2.41323645 -0.62581378 0.24063776
C   -0.93012325 0.68637474 -1.6103302
C   0.26882911 -1.88917135 -0.00845838
C   -2.7055051 0.09045212 -0.00677428
H   0.04128457 0.18952994 2.59290903
H   -0.37249422 2.1844367 1.31494141
H   3.74531985 1.14539492 1.93381273
H   2.24202529 2.20650952 1.85465165
H   2.42880024 1.21913839 3.09150203
H   1.62004788 1.51455625 -1.42143941
H   0.67816736 2.88379365 -1.85731824
H   1.35516361 2.76325893 -0.23702379
H   -1.20472446 -1.49170585 1.48154573
H   -2.38423683 0.80852941 1.9031598
H   1.84532685 -1.78286989 -1.29884786
H   -2.5983483 -0.53547287 -1.99398095
*
