! Engrad wB97M-D3BJ def2-TZVPPD 
%pal nprocs 8 end%pal nprocs 16 end 
%tddft nroots 2 Iroot 1
 sf true 
end 
*xyz 0 3 
O   1.41341493109207 1.03735599797304 -0.08494232267931
C   0.93702648350109 -0.00929146737313 0.25966412121483
C   -0.31354731892484 -0.67334190189729 -0.22805747800944
H   1.45915340682676 -0.59853384402645 1.04247326141783
H   -0.05554387684619 -1.6585074703009 -0.61770061636135
H   -0.81366774565388 -0.08611426361129 -0.99296091490376
H   -0.97869757833856 -0.83033228867601 0.62152394932121
*
