! Engrad def2-TZVPPD wB97M-D3BJ 
%pal nprocs 8 end%pal nprocs 64 end 
 %tddft nroots 2 Iroot 1 
sf true 
end 
*xyz 0 3 
O   3.25624522091369 -1.39481768284148 2.52578418890813
O   -1.66540516583449 0.72849455188289 -2.57156925924772
O   1.5558814990702 -2.1469340241864 -1.64489427654193
O   -3.53237138252798 -0.95742407405097 1.18086395341408
N   1.4652514826594 -0.22566634570943 -0.31141906868331
N   -1.78101125468787 0.48014290208238 1.42231666298328
N   2.54950228981299 -2.09175987355822 0.43734114883044
N   -2.43956690912651 -0.23550575661353 -0.68090531446566
C   1.9066599145623 0.01685201139804 1.06635567299294
C   -0.80457382027915 1.58174944179353 -0.49899020595138
C   0.47214921917967 -0.21381588313953 0.77935224520372
C   -0.52310152125112 0.93321179133551 0.85029110513583
C   2.47821503882856 1.34881706204879 1.44753400603408
C   -1.52259622295326 2.9237650857146 -0.34995533705623
C   2.65856008115118 -1.21413837804805 1.50052366110542
C   -1.64242214820108 0.66649486908773 -1.36904650477408
C   1.83112131831112 -1.57371395944315 -0.63655279802837
C   -2.64789636037495 -0.28941557579114 0.69681632065687
H   0.06110036853471 -1.17846632541165 1.05138722994199
H   -0.13486998383052 1.69762958559295 1.51986752969551
H   1.95191239198383 2.15475833972743 0.94443629296192
H   2.41098297450357 1.48933028570916 2.52402759813693
H   3.52690746645453 1.39960008765628 1.1649174143549
H   -2.45814542677438 2.81070198453168 0.1938553837964
H   -0.89392315561052 3.62656009915253 0.19438485766914
H   -1.73703061228311 3.34134411848113 -1.3297060699538
H   0.13046409159866 1.71963339378753 -1.03266478797515
H   -1.85393584466499 0.34619219147964 2.41527543152512
H   2.90468696424221 -3.03258690564114 0.44725091033772
H   -3.0701905134068 -0.79603301702714 -1.23227799100672
*
