! Engrad wB97M-D3BJ def2-TZVPPD 
%pal nprocs 8 end%pal nprocs 16 end 
%tddft nroots 2 Iroot 2
 sf true 
end 
*xyz 0 3 
O   0.6446118935491 0.99327037682721 -0.00031022393326
C   0.7594481409889 -0.34069788158439 -0.00011399732535
C   -0.64965963440991 -0.58928814582652 0.0001121574615
H   1.26835007779561 -0.748682799411 0.88445258657745
H   1.26816754953962 -0.74915185730661 -0.88456854166392
H   -1.20573925994271 -0.53835580653038 -0.92479327942435
H   -1.20538006208378 -0.53819639466963 0.92522129830793
*
