! Engrad def2-TZVPPD wB97M-D3BJ 
%pal nprocs 8 end%pal nprocs 64 end 
%tddft Nroots 2 Iroot 1 
sf true 
end 
*xyz 0 3 
O   2.81832041 1.12481032 -0.69186757
O   -0.36226313 0.79568724 -2.03960272
O   0.6238298 -2.81225943 -1.49454265
O   -2.6420615 -1.68583535 0.97516249
N   0.67414727 -2.03378866 0.65647911
N   -2.42654123 0.5395158 1.33638862
N   1.85191716 -0.92832158 -1.02516106
N   -1.60767918 -0.40492902 -0.57396981
C   1.62366257 0.09070834 1.10514727
C   -1.02192882 1.86175629 -0.05949386
C   0.84514554 -0.97881918 1.51542872
C   -1.75411881 1.70756807 1.0537624
C   2.00446447 1.21973273 2.01477504
C   -0.29423168 3.10999376 -0.3489464
C   2.15704117 0.19017469 -0.26633823
C   -0.93007058 0.74600628 -0.96321117
C   1.04845552 -2.01471488 -0.68154557
C   -2.26992053 -0.59693465 0.58639273
H   0.55228156 -1.20892297 2.49643626
H   -1.8281398 2.4716782 1.80317593
H   1.48372853 2.1904952 1.83542148
H   1.79470004 0.91703668 3.06451214
H   3.06785189 1.37602103 1.95262987
H   -0.55187308 3.53099835 -1.30295367
H   -0.53114534 3.83793719 0.42694675
H   0.77059611 2.95068997 -0.35078619
H   -0.08240312 -2.7136047 0.77728258
H   -2.89846717 0.39850061 2.23547498
H   2.12918938 -0.93495909 -1.99353889
H   -1.53290059 -1.24242593 -1.14163313
*
