! Engrad def2-TZVPPD wB97M-D3BJ 
%pal nprocs 8 end%pal nprocs 32 end 
%tddft Nroots 2 Iroot 2 
sf true 
end 
*xyz 0 3 
O   0.52029823 1.20787082 -0.04338143
C   0.56667786 -0.269105 0.03551353
C   -0.82313414 -0.90362445 0.01348193
H   1.12553697 -0.56280839 0.92935532
H   1.11041041 -0.61780956 -0.84152222
H   -1.37542415 -0.87858582 -0.89309549
H   -1.36889114 -1.1830457 0.87623403
*
