! Engrad def2-TZVPPD wB97M-D3BJ 
%pal nprocs 8 end%pal nprocs 64 end 
%tddft Nroots 2 Iroot 2 
sf true 
end 
*xyz 0 3 
O   4.06130493 0.11764557 0.38035568
O   -1.73502091 1.51559448 -2.35756629
O   1.09494669 -3.00764397 -1.08136167
O   -3.6373544 -1.31509754 0.51336815
N   0.32386103 -1.27546679 0.1113594
N   -2.00897742 -0.00680606 1.29751709
N   2.61832785 -1.4827333 -0.27419534
N   -2.43408996 -0.10221067 -0.98779311
C   1.79851027 0.38231542 1.03617463
C   -0.87154207 1.54888823 -0.14751617
C   0.43854612 -0.25915337 1.11878349
C   -0.76732253 0.72696004 1.10060129
C   2.12568079 1.64407605 1.74778033
C   -0.59052839 2.98155961 -0.15827719
C   2.91871292 -0.28235021 0.37275606
C   -1.68381399 1.02791224 -1.24120131
C   1.33274444 -2.01243383 -0.45508675
C   -2.74440811 -0.53689759 0.28967765
H   0.35979417 -0.71485536 2.14919926
H   -0.6307232 1.39374424 1.9324647
H   3.19697648 1.69711607 1.91046001
H   1.93672745 2.50437431 1.10845981
H   1.56399187 1.8537581 2.66682657
H   -1.20316791 3.5385004 0.60172586
H   0.40550498 3.2600253 0.11853558
H   -0.8445839 3.38722092 -1.14371092
H   -0.5523685 -1.71753153 0.01183807
H   -2.09430552 -0.47269481 2.19247969
H   3.38613269 -1.92995075 -0.74468252
H   -2.98754724 -0.47055982 -1.7361484
*
