! Engrad def2-TZVPPD wB97M-D3BJ 
%pal nprocs 8 end%pal nprocs 64 end 
%tddft 
 Iroot 2 Nroots 3 
sf true 
end 
*xyz 0 3 
O   1.19716545 0.81402946 0.40626954
C   0.02449814 0.25694882 0.26944047
C   0.02414627 -0.99210809 -0.51718844
H   -0.56649931 1.15214245 -0.1985188
H   -0.42470752 0.10729872 1.2741391
H   -0.73209393 -1.62136781 -0.13139377
H   0.77142494 -1.06861494 -1.24908003
*
