! EnGrad wB97M-D3BJ def2-TZVPPD 
%pal nprocs 8 end%pal nprocs 16 end 
%tddft 
 sf true 
 nroots 2 Iroot 2 end 
*xyz 0 3 
O   0.27938096798447 0.97376081193591 -0.00197308270233
C   0.64017404332755 -0.31821121512766 -0.00040117578369
C   -0.73660066761456 -0.67923839882689 0.00051792794841
H   1.19750963500465 -0.63979090015597 0.88813309976152
H   1.19770245886817 -0.64176055095604 -0.88804457764662
H   -1.28852435563407 -0.70809215609895 -0.92591951856976
H   -1.2874420819362 -0.70506759077039 0.92768732699247
*
