! Engrad def2-TZVPPD wB97M-D3BJ 
%pal nprocs 8 end%pal nprocs 32 end 
%tddft Nroots 2 Iroot 1 
sf true 
end 
*xyz 0 3 
O   2.84834102 1.26864783 -0.50752794
O   -0.49119208 0.50742963 -1.97696308
O   1.3264121 -2.86046592 -1.64335578
O   -3.03835042 -1.48403626 1.19621181
N   0.66546166 -1.95086753 0.33792837
N   -2.21495711 0.60509219 1.60360989
N   2.08900858 -0.79682206 -1.04381376
N   -1.86650657 -0.39689655 -0.4343396
C   1.27155783 0.28477842 0.95301838
C   -0.74157493 1.67741482 0.07151904
C   0.66003693 -0.91409429 1.22840073
C   -1.46925966 1.6882934 1.19827584
C   1.46988487 1.30932358 2.01764019
C   -0.00356253 2.87721356 -0.42827072
C   2.11633219 0.33586341 -0.22858228
C   -0.98202454 0.58636183 -0.87553233
C   1.35579079 -1.93964245 -0.85684966
C   -2.42181985 -0.50652364 0.82007568
H   0.13920205 -1.07689063 2.14292123
H   -1.44123395 2.51283831 1.88872845
H   1.36088338 2.31866878 1.63993562
H   0.77450672 1.16238783 2.84008398
H   2.48916749 1.23928261 2.41375711
H   -0.44404867 3.21271038 -1.35501254
H   -0.05485235 3.68985572 0.30218802
H   1.0450856 2.66589405 -0.63111681
H   0.13250123 -2.77940735 0.5275994
H   -2.68491234 0.59855631 2.49045441
H   2.6097488 -0.73465756 -1.90389203
H   -2.00539314 -1.18441671 -1.0454899
*
