! Engrad def2-TZVPPD wB97M-D3BJ 
%pal nprocs 8 end%pal nprocs 64 end 
 %tddft nroots 2 Iroot 1 
sf true 
end 
*xyz 0 3 
O   3.12337495643686 0.51330335833155 -0.886249345843
O   -0.48586073622016 1.3924902587012 -2.30873518179894
O   0.41620037315636 -3.06832948552586 -0.50234316073261
O   -3.11200198445753 -1.64043188067527 -0.29221372282425
N   0.30426886196855 -1.49829811734919 1.13079846411055
N   -2.13422297578343 -0.06836089405897 1.03233909431467
N   1.57184401545295 -1.13680668962589 -0.79103162929346
N   -1.49172516268799 -0.31018051409782 -1.18793162793091
C   1.6396588342537 0.53157972134555 0.94233069283678
C   -0.68191424517048 1.58023807821192 0.04756031420119
C   0.37671578787624 -0.12521248473174 1.5730173070579
C   -0.95467803253268 0.71689886156854 1.27177532522822
C   2.36460697492905 1.57438113342902 1.68867047926256
C   -0.63241902723336 3.05027345264469 0.13056095501935
C   2.18755968267381 0.00436791856254 -0.30076922744344
C   -0.85032314903363 0.92472731971439 -1.25095770976622
C   0.72701479661088 -1.97776360289232 -0.08237381584969
C   -2.30905266984151 -0.75190883271347 -0.14668878128826
H   0.51377612714986 -0.14956994035703 2.6573114073163
H   -1.14177478047129 1.363402955809 2.12616220053039
H   3.18003119113204 1.97031991288222 1.09238920710122
H   1.70082739958199 2.39192806449738 1.98463296122799
H   2.7677757990134 1.15734409297148 2.6179597353941
H   -1.610481926976 3.44224905892258 0.43271858355931
H   0.08083929287975 3.37896063516507 0.89079050075391
H   -0.36661906664661 3.47730452129067 -0.83130213912156
H   -0.33814916446183 -2.12219037662125 1.58743866294016
H   -2.69570235331927 -0.40675953915545 1.79350532917329
H   1.93839500715118 -1.51395569793485 -1.6494360089758
H   -1.63536382543084 -0.78500128830873 -2.06532886915973
*
