! Engrad def2-TZVPPD wB97M-D3BJ 
%pal nprocs 8 end%pal nprocs 64 end 
%tddft 
 Iroot 2 Nroots 3 
sf true 
end 
*xyz 0 3 
O   -0.0084255 0.88062104 0.77220034
C   0.4822494 -0.36217824 0.41057399
C   0.79223317 -0.38739462 -1.04988217
H   -0.24767164 -1.13282535 0.64383265
H   1.35662678 -0.44660959 1.10370265
H   1.68598718 -0.67052334 -1.51643165
H   0.01183602 0.05709065 -1.69979619
*
