! Engrad def2-TZVPPD wB97M-D3BJ 
%pal nprocs 8 end%pal nprocs 64 end 
%tddft 
Iroot 3 Nroots 3 
sf true 
end 
*xyz 0 3 
O   2.6080920734753947 1.131708307887154 -0.47971802652335577
O   -0.6545725701108659 0.9036039047692026 -2.3501938718829756
O   0.5222536094141437 -2.765325757798716 -1.4087737535143483
O   -2.5935845014880483 -1.548179035393989 0.8791237523870438
N   0.5704105777385152 -2.040566837592409 0.7080104687498207
N   -1.9630431803308168 0.5118972348735463 1.3845817029153218
N   1.6248013789158926 -0.8482337874025667 -0.9068333994440975
N   -1.6254595320544947 -0.30503367791628155 -0.7242704455467538
C   1.5018136601255931 0.07303897079180713 1.2563758074437354
C   -0.8326542732682285 1.8557530548970282 -0.20497555009201096
C   0.7950518596466241 -1.0248410212177061 1.591856515550718
C   -1.241119107364026 1.6020874899843534 1.0520802038228374
C   1.879285521702598 1.0757084432729744 2.2283679327108286
C   -0.34677136664834884 3.1512018279758 -0.6027484175025405
C   1.973728498740193 0.19061422141103004 -0.08851745710988171
C   -1.008833820569173 0.8289477172664538 -1.203280013692829
C   0.8802559003984709 -1.9464402522630542 -0.6071268948562915
C   -2.0933233047527824 -0.5163252174510371 0.5314420358516585
H   0.5782652113999072 -1.2685902345884192 2.6161639473252216
H   -1.222295872881511 2.3671098679010116 1.8044196014120837
H   1.609822000054133 2.066420515812778 1.8719374329444038
H   1.4129472775792329 0.9538751045603607 3.2038195178560853
H   2.94310429949619 1.1451997947592891 2.43849867547954
H   -1.0274911235348934 3.5464256778472327 -1.3545273228072012
H   -0.22362539076008506 3.894696274147318 0.174288267858869
H   0.6219940367954618 3.076368468599799 -1.0917835351255682
H   -0.0637537746917447 -2.782204088753163 0.9364420419491349
H   -2.2913562666281897 0.3825681116596314 2.3192586495851715
H   1.8389452316346788 -0.7363762327647275 -1.8847689461630541
H   -1.720287052033849 -1.0601088452747633 -1.3845489195815677
*
