7
Coordinates from ORCA-job orca E -153.861219986491
  O           0.15039275762571      0.88570505340562     -0.00026450359113
  C           0.66949636744758     -0.36585443570417      0.00018453709518
  C          -0.72993428387788     -0.58476496291163     -0.00022821904680
  H           1.22438534492690     -0.64980739483027      0.89712051649886
  H           1.22384576029941     -0.65003299277996     -0.89710130377684
  H          -1.26839981666734     -0.67795052120341     -0.92791336394010
  H          -1.26758612975437     -0.67569474597617      0.92820233676084
