! Engrad def2-TZVPPD wB97M-D3BJ 
%pal nprocs 8 end%pal nprocs 32 end 
%tddft Nroots 2 Iroot 1 
sf true 
end 
*xyz 0 3 
O   0.69771923 1.44347206 -0.08318823
C   0.61147669 0.15140824 0.43911488
C   -0.4143859 -0.8138275 -0.31650929
H   1.31401157 -0.33064376 1.07151389
H   0.1602632 -1.60232074 -0.75721235
H   -0.94765276 -0.22913084 -1.10109489
H   -1.15832888 -1.25343088 0.36977223
*
