! Engrad def2-TZVPPD wB97M-D3BJ 
%pal nprocs 8 end%pal nprocs 32 end 
 %tddft nroots 2 Iroot 1 
sf true 
end 
*xyz 0 3 
O   2.36816586111015 -0.35853665899683 -1.13379371272586
O   -0.15490146116284 2.86564194883798 -2.22036448012835
O   0.19949674651555 -3.80429652626546 0.81058350602937
O   -2.08132645827465 -1.05637449558318 -1.46925075627454
N   0.4007412256097 -1.89314809980382 2.01971905028798
N   -1.37007353371289 -0.21529751263324 0.49991074187231
N   1.08008041591107 -1.96777228352567 -0.20223477067566
N   -0.75770737892127 0.76670819774498 -1.59325444554726
C   1.44106518048613 0.10924902860996 0.98993998688991
C   -0.38843496671113 2.76907166327619 -0.07696024960628
C   0.59049670339577 -0.47859088998344 2.07017263466601
C   -0.41228810601787 0.38513775924927 1.31724713974794
C   2.30610350244331 1.2992026016063 1.23446605953547
C   -1.65699830493802 3.41807581136994 0.29974801885555
C   1.68112531417824 -0.71625172236371 -0.20472849756358
C   -0.44792283108012 2.07923170983572 -1.3246781556596
C   0.52748573706453 -2.64342488637026 0.88169472941245
C   -1.45046987014609 -0.21293866055516 -0.87911600760811
H   0.82074574575649 -0.14569464539024 3.07388784746095
H   -0.52838819949665 1.39922486712616 1.66255049039726
H   2.44086605706118 1.86914541701656 0.32177928806977
H   1.86289596891839 1.95144539063801 1.98272264774739
H   3.28490572488543 0.97537494336694 1.59189588023835
H   -2.54837036953116 2.79627726130411 0.17127446870408
H   -1.63393027570889 3.88155708990948 1.28145478750054
H   -1.7416232548043 4.22269794703647 -0.44419861076708
H   -0.0340689573394 -2.36994064132659 2.78875811494731
H   -1.81540709397489 -1.04634705833774 0.86108418628083
H   1.23015422639895 -2.53600522666421 -1.0209011508993
H   -0.75981734791475 0.57157767087146 -2.58480874118784
*
