! Engrad wB97M-D3BJ def2-TZVPPD 
%pal nprocs 8 end%pal nprocs 16 end 
%tddft nroots 2 Iroot 2
 sf true 
end 
*xyz 0 3 
O   1.65840654335124 0.94637072388116 0.01128960751807
C   0.96848417270612 -0.01530709877676 0.20220733236622
C   -0.30333547614399 -0.67285578420189 -0.24545170230415
H   1.37312719059222 -0.70541596395116 0.98941335077993
H   -0.02773404462725 -1.67088650771357 -0.58325433480095
H   -0.86415808169187 -0.15523611086354 -1.02133969548826
H   -0.91634172409857 -0.78969008070817 0.64713544192913
*
