30
Coordinates from ORCA-job orca E -908.795854637147
  O           3.14142477874779      0.48154170616223     -0.90114303435434
  O          -0.53394753700264      1.43880266757781     -2.30872393159735
  O           0.41408992179261     -3.07150608314247     -0.45646570598659
  O          -3.07526010743076     -1.68993461636195     -0.33205467406517
  N           0.31587932311250     -1.47848884214129      1.15568890655353
  N          -2.14280868220327     -0.10620682038527      1.01063953152542
  N           1.55838994590428     -1.13942065291781     -0.78742019805451
  N          -1.48561221829780     -0.30880830470348     -1.20732152445142
  C           1.68386828426789      0.52233950117428      0.94580215509785
  C          -0.74219369683559      1.59350018035552      0.04756054306444
  C           0.37707209397743     -0.09672466113900      1.56822128992715
  C          -0.99540326812779      0.71811876751945      1.26118852322436
  C           2.41013168656482      1.56991806661770      1.67786762794527
  C          -0.65406732062381      3.05731491829087      0.15223568271212
  C           2.20169739337358     -0.00868966305499     -0.30389948870193
  C          -0.88590627648792      0.94845435624867     -1.25604463904739
  C           0.72643618667525     -1.97370035280193     -0.05706993682568
  C          -2.29586049469181     -0.78287273997458     -0.17537155269208
  H           0.50483099719880     -0.09750613359462      2.65386113859251
  H          -1.20444134803728      1.34924794875844      2.12165353798319
  H           3.31168100019676      1.85260974948710      1.14432255878972
  H           1.78859340675526      2.46333206060917      1.81687703351847
  H           2.66669385206983      1.22360074049148      2.68405824455494
  H          -1.60083656729986      3.46716158516209      0.52233607025134
  H           0.10856285378150      3.35465199992261      0.88017178710806
  H          -0.42858537586004      3.49806923991432     -0.81348731024596
  H          -0.31543199197340     -2.10161837044460      1.62875372421323
  H          -2.69904741739306     -0.46329973482189      1.76693321688295
  H           1.91732285963554     -1.52907717849362     -1.64345969683584
  H          -1.61467228178884     -0.77580933431429     -2.09110987908630
