! Engrad def2-TZVPPD wB97M-D3BJ 
%pal nprocs 8 end%pal nprocs 64 end 
%tddft 
 Iroot 2 Nroots 3 
sf true 
end 
*xyz 0 3 
O   0.79458171 -0.77433163 -0.70078338
C   0.7585554 0.10685644 0.43051219
C   -0.4154955 0.94371591 0.55612827
H   1.64093546 0.76139107 0.22475663
H   0.91970469 -0.50611426 1.36761125
H   -0.33240379 1.94364233 0.46052358
H   -1.42726551 0.57346644 0.54487249
*
