30
Coordinates from ORCA-job orca E -908.933463878336
  O           2.67703839281085      1.12932486277831     -0.62799593921626
  O          -0.50087464308271      0.84072334210426     -2.16419465454083
  O           0.67944337407255     -2.85381098747635     -1.50946210010062
  O          -2.56358418291640     -1.66927789128977      1.00893888107049
  N           0.63855136902323     -2.06477368173342      0.62599068237566
  N          -2.16683015241359      0.53223471524406      1.43653837454716
  N           1.77514372719145     -0.91390968608284     -1.01511589854442
  N          -1.61236582819653     -0.36623293859762     -0.60527862561181
  C           1.48725401772887      0.10289632950932      1.14690700101623
  C          -0.89079205382129      1.87134698671032     -0.06035398595734
  C           0.83604018360176     -1.01551166570375      1.49221371801557
  C          -1.55327938384246      1.71754858348207      1.08996239959131
  C           1.74863866104808      1.23368218141739      2.08810883826323
  C          -0.17368092529629      3.12148109292509     -0.45659552619231
  C           2.04064100724697      0.18782552341284     -0.20512909410296
  C          -0.96057732493901      0.78928588335058     -1.04566815561442
  C           1.00696116277936     -2.01365773370518     -0.70172670487664
  C          -2.14944637060438     -0.58974446473430      0.64000112596155
  H           0.42046632419185     -1.15651714289176      2.47863033050396
  H          -1.59965394883844      2.49528312996811      1.83690855042194
  H           1.39661420803077      2.17335834607936      1.66908443330279
  H           1.25263589466308      1.06330411325594      3.04137337660500
  H           2.81656463201278      1.34779847911911      2.26561986546790
  H          -0.60078931482194      3.53531075009002     -1.36783847520218
  H          -0.23358975426087      3.86747207909966      0.33289734865771
  H           0.87308918240042      2.90546352250293     -0.66355249731289
  H          -0.01205756415542     -2.79501216554531      0.86138195538330
  H          -2.58997397563500      0.41238557613008      2.33875947546009
  H           2.02277487353536     -0.81973066184193     -1.98801632436139
  H          -1.61176158751307     -1.15354647757728     -1.23778837500983
