! Engrad def2-TZVPPD wB97M-D3BJ 
%pal nprocs 8 end%pal nprocs 64 end 
%tddft 
 Iroot 1 Nroots 3 
sf true 
end 
*xyz 0 3 
O   1.36022236 0.53143326 0.57985427
C   0.05455675 0.44569096 0.14502652
C   -0.16747601 -0.82704125 -0.56851851
H   -0.42236549 1.30579711 -0.47582689
H   -0.74420096 0.4178102 1.01176024
H   -1.10112214 -1.09400772 -0.96314032
H   0.61741082 -1.61161491 -0.54316086
*
