! Engrad def2-TZVPPD wB97M-D3BJ 
%pal nprocs 8 end%pal nprocs 32 end 
%tddft Nroots 2 Iroot 1 
sf true 
end 
*xyz 0 3 
O   0.96927518 0.78423805 -0.33075483
C   0.23363343 0.13130615 0.594485
C   -0.83487325 -0.73685855 0.05581971
H   -0.25235971 0.82597737 1.31981003
H   0.7868181 -0.46511718 1.25659056
H   -1.18098326 -1.67608296 0.46804137
H   -1.28073112 -0.50317191 -0.94473482
*
