7
Coordinates from ORCA-job orca E -153.889151014727
  O          -0.01715285035848      0.77424466539844     -0.00003685341031
  C           0.74062249673460     -0.44909573590361      0.00002574127435
  C          -0.73231504725980     -0.42462222864429     -0.00001732445850
  H           1.26941012358964     -0.65449614047095      0.92054436535346
  H           1.26933995747683     -0.65470221481889     -0.92049698842015
  H          -1.26387518552642     -0.65482494661473     -0.91623578595602
  H          -1.26382949465638     -0.65490339894598      0.91621684561717
