7
Coordinates from ORCA-job orca E -153.856310944488
  O           0.31205911829959      0.91214556674276     -0.00031728875893
  C           0.73103004831287     -0.37331077910073     -0.00006503120067
  C          -0.67658510632640     -0.53014318506491     -0.00007905414865
  H           1.26821774981087     -0.69598666841189      0.89556246527750
  H           1.26841615380092     -0.69628446710186     -0.89546640626502
  H          -1.22084358906884     -0.57658367744553     -0.92801461542208
  H          -1.22008294486082     -0.57536145110033      0.92837993051786
