! Engrad def2-TZVPPD wB97M-D3BJ 
%pal nprocs 8 end%pal nprocs 64 end 
%tddft 
 Iroot 1 Nroots 3 
sf true 
end 
*xyz 0 3 
O   2.5307725 -0.69652373 -2.53227434
O   -2.37900624 1.03400086 -1.40318008
O   -1.33272715 -2.48602132 -0.92357959
O   -2.27597934 1.17490695 3.16262165
N   0.12077985 -1.6838111 0.61301677
N   -0.28886808 0.78504272 2.1166757
N   0.59559604 -1.51335938 -1.66155562
N   -2.33326006 1.20514421 0.89916802
C   2.20897687 -0.71333315 -0.20960494
C   -0.29714446 1.15575414 -0.3710787
C   1.10710785 -0.69941048 0.84041284
C   0.49197127 0.75567005 0.87710992
C   3.57377456 -0.1936922 0.15617567
C   0.32371611 1.77659498 -1.544473
C   1.88780006 -1.00074207 -1.53633904
C   -1.72778294 1.08673274 -0.37387561
C   -0.31639847 -1.91576861 -0.62622119
C   -1.67817286 1.05647518 2.10150044
H   1.66836485 -0.83257013 1.78027061
H   1.35452486 1.42821189 0.94712645
H   4.21142828 -0.87986022 0.70798057
H   4.19527147 0.1500092 -0.66643828
H   3.44881748 0.60194725 0.88845453
H   -0.09932592 2.79558016 -1.73162328
H   1.37759302 1.86373734 -1.35270653
H   0.15171642 1.15210309 -2.41994839
H   -0.52039411 -2.02716021 1.34195091
H   0.16668139 0.87464674 3.00024003
H   0.23196896 -1.55329256 -2.64214823
H   -3.3035107 1.03484488 0.82832172
*
