7
Coordinates from ORCA-job orca E -153.790899479040
  O           0.81900173079363      1.01052482486538      0.00022625941790
  C           0.77535163933364     -0.32785208920929     -0.00001716946012
  C          -0.64132356066298     -0.59922173079162     -0.00005265308365
  H           1.26129255211850     -0.77768544593964      0.88009377427145
  H           1.26105525893093     -0.77715245033512     -0.88057534401517
  H          -1.20402576074013     -0.53555146162301     -0.92258618539242
  H          -1.20314943871076     -0.53352025050044      0.92291131826200
