! Engrad wB97M-D3BJ def2-TZVPPD 
%pal nprocs 8 end%pal nprocs 16 end 
%tddft nroots 2 Iroot 1
 sf true 
end 
*xyz 0 3 
O   1.76779652057804 0.87672717806936 0.0687777370281
C   0.98616712497086 -0.02638097580492 0.18075879215592
C   -0.30275334671907 -0.6684636004262 -0.25523820986728
H   1.32993675712694 -0.76404475764835 0.96294923063935
H   -0.02841597184496 -1.66985692528229 -0.58138066962301
H   -0.88333064778542 -0.16699377609538 -1.02863689786548
H   -0.89426898698733 -0.76957631476176 0.6527700175324
*
