! Engrad def2-TZVPPD wB97M-D3BJ 
%pal nprocs 8 end%pal nprocs 64 end 
%tddft 
 Iroot 1 Nroots 3 
sf true 
end 
*xyz 0 3 
O   3.43658862 -0.07683578 -1.04750455
O   -1.50026901 0.67276151 -2.47329092
O   0.29803914 -3.17766871 -0.44255436
O   -3.63810406 -0.36464679 1.43363426
N   0.24545298 -1.36091723 0.86111903
N   -1.72048331 0.74072721 1.52020438
N   1.6244285 -1.3900417 -0.91201659
N   -2.56608241 0.02070495 -0.54549653
C   1.87977364 0.30540085 0.73024601
C   -0.42622598 1.35126433 -0.53324028
C   0.57634674 -0.02793987 1.31261548
C   -0.44131201 1.13138157 0.91276973
C   2.69088237 1.40080907 1.36891365
C   0.61295033 2.04495837 -1.35379661
C   2.43041887 -0.36921572 -0.50027325
C   -1.55627685 0.65934697 -1.23523975
C   0.66144882 -2.08188552 -0.19254437
C   -2.6600203 0.08413659 0.8300349
H   0.54828058 -0.02986323 2.43546955
H   -0.0025444 1.9709483 1.56282903
H   3.57416901 1.58932682 0.8656806
H   2.38087392 2.36992359 1.49394271
H   3.07155887 1.08910151 2.35335312
H   0.19426176 2.66946094 -2.13930242
H   1.29365249 2.55483321 -0.76331873
H   1.27098698 1.28392526 -1.85390794
H   -0.33742359 -1.83754152 1.55317942
H   -1.65742065 0.55079972 2.49705875
H   2.10614946 -1.98478632 -1.53065331
H   -3.35355439 -0.35275082 -1.04889197
*
