! Engrad wB97M-D3BJ def2-TZVPPD 
%pal nprocs 8 end%pal nprocs 16 end 
%tddft nroots 2 Iroot 1
 sf true 
end 
*xyz 0 3 
O   1.5809124202213 0.98113110813638 -0.04220413213917
C   0.95978637926085 -0.01204021529837 0.21296972271874
C   -0.30799406392862 -0.6732524455381 -0.23336576250298
H   1.40979477365274 -0.66563685272446 1.00050777833198
H   -0.04156554408878 -1.67009522363837 -0.58340089971781
H   -0.85477550898554 -0.13767203420002 -1.00612376260264
H   -0.93121809487148 -0.79771858315405 0.65161705591189
*
