! Engrad def2-TZVPPD wB97M-D3BJ 
%pal nprocs 8 end%pal nprocs 64 end 
%tddft Nroots 2 Iroot 2 
sf true 
end 
*xyz 0 3 
O   2.14877727 -0.48620194 -1.44618484
O   0.39677669 2.68378291 -1.37738144
O   0.1997558 -3.83406331 0.76351787
O   -2.23082226 -0.99367962 -1.528452
N   0.75429042 -1.9727703 1.91230459
N   -1.24546103 -0.3685047 0.42860088
N   1.05423946 -2.09580327 -0.39192791
N   -1.01600611 0.96319336 -1.55024079
C   1.28854519 0.16243658 0.7521889
C   -1.2381998 2.6677593 0.29932104
C   0.80695817 -0.55286058 1.99510758
C   -0.16137514 0.26178285 1.15161371
C   2.26764727 1.35663429 0.81131608
C   -1.17932031 3.98339741 0.89600604
C   1.49328194 -0.78062764 -0.48682522
C   -0.57236409 2.12162217 -0.87647594
C   0.63990703 -2.7179276 0.79302426
C   -1.59818202 -0.17348611 -0.97161763
H   1.22247787 -0.16362992 2.98008793
H   -0.44871941 1.2312495 1.59520981
H   2.61824324 1.57709168 -0.18297358
H   1.65067311 2.15849276 1.02329791
H   2.99219587 1.28019742 1.60831684
H   -2.08799132 4.59657872 0.65156255
H   -1.08138994 3.95371735 2.00616452
H   -0.45101434 4.60764942 0.49570516
H   0.54620232 -2.45312255 2.76535448
H   -1.50101874 -1.34851592 0.71459474
H   1.13677424 -2.74127167 -1.13870847
H   -0.47950204 0.86614931 -2.39404847
*
