! Engrad def2-TZVPPD wB97M-D3BJ 
%pal nprocs 8 end%pal nprocs 64 end 
%tddft 
Iroot 0 Nroots 3 
sf true 
end 
*xyz 0 3 
O   2.8671564503013593 0.8759966588327206 -0.6722065869731122
O   -0.45860144279238957 1.0650015478493269 -2.314910617434152
O   0.5016792875102513 -2.9392053672496234 -1.0108259546239324
O   -2.993356487766163 -1.506386381667492 0.31103150704949
N   0.3981483105360284 -1.7855652254103243 0.8858732727129854
N   -2.0668318270780657 0.24776096816531334 1.2451654128657996
N   1.6459302056287062 -1.0016191733184616 -0.8340657008770695
N   -1.604894447158139 -0.28522126769264405 -0.9410136625373029
C   1.4520162080040706 0.3576732414998792 1.056366788798365
C   -0.6154745416733117 1.6377187796455186 -0.044012166716311106
C   0.5587051189877934 -0.5996474287381592 1.5869537918790755
C   -1.0139813642857138 1.1125063694816129 1.2136924613214901
C   2.001171175796016 1.357537127180862 1.9211680512461407
C   -0.39477150413441875 3.03557398846938 -0.20790396452621593
C   2.0670692268909026 0.12048077945160021 -0.20517118597219045
C   -0.859125785278145 0.826279194830326 -1.2104979419688968
C   0.820803375627372 -1.9771864469106684 -0.3747378883065756
C   -2.2590928921297753 -0.5725973633553686 0.2139708088145002
H   0.5873501686182522 -0.7696547558445829 2.653384261241196
H   -1.0850431916533771 1.8311324659277608 2.0129168283883683
H   2.170863893762947 2.2794840468593343 1.37140030344483
H   1.401307033274458 1.6233965403622674 2.790859972725966
H   2.9688403613025094 1.135904590083172 2.367597671279953
H   -1.3416020709451173 3.465327481863667 -0.5421828678806355
H   -0.04336758388173348 3.627271153876709 0.6278597566187667
H   0.3127957082520297 3.2389684905848815 -1.0079906372982623
H   -0.2631198070959283 -2.4698066262351057 1.1970370773772967
H   -2.515958145073484 0.02358691084162819 2.1079823311306916
H   1.986580009613441 -1.1460339069350345 -1.7690913469774274
H   -1.7725954431603774 -0.8936763924485622 -1.7240497748028216
*
