! EnGrad wB97M-D3BJ def2-TZVPPD 
%pal nprocs 8 end%pal nprocs 16 end 
%tddft 
 sf true 
 nroots 2 Iroot 1 end 
*xyz 0 3 
O   0.03086433783967 0.80148468845819 -5.563858945e-05
C   0.71416968294912 -0.42017532647479 0.00015599961936
C   -0.72827687077614 -0.4692024159182 -0.00017815761906
H   1.25336323103377 -0.65443161655617 0.91204564205151
H   1.25302916138035 -0.65494399008618 -0.91185132613064
H   -1.26068461481968 -0.660432345678 -0.9204612135297
H   -1.26026492760708 -0.66069899374485 0.92034469419798
*
