30
Coordinates from ORCA-job orca E -908.926879961850
  O           2.92574934592551      1.23979910000671     -0.48699952640758
  O          -0.51673133477228      0.43942268827401     -1.89924632290849
  O           1.37973238457686     -2.84549568969403     -1.74524439530955
  O          -3.13264867831927     -1.37907125779526      1.32418106856885
  N           0.70522745555864     -1.98484853004286      0.25208160873823
  N          -2.30325525992285      0.71958840537283      1.64617122151324
  N           2.17577784488476     -0.81282892253387     -1.07370141802110
  N          -1.92648925297981     -0.37967114870042     -0.33475844081880
  C           1.39635555113601      0.17525962570756      0.98299893713092
  C          -0.85756305378620      1.74645526481127      0.05499287534264
  C           0.72395969751067     -0.96755330562028      1.17414299088375
  C          -1.54352580999634      1.78267248981632      1.20119618122310
  C           1.53782925579432      1.22980178594705      2.03374179846383
  C          -0.05480951735853      2.89484883255993     -0.46773480692533
  C           2.22197794124127      0.28628037914517     -0.22487919357584
  C          -1.04862250495517      0.58995574263913     -0.82114425299113
  C           1.41437760373747     -1.95207148466670     -0.93275990796520
  C          -2.50778807401509     -0.42581972362630      0.91176599895975
  H           0.14183820247401     -1.14947234356028      2.06564223572854
  H          -1.50131151641376      2.62867271863641      1.86980462230677
  H           1.37276077406010      2.22154716790105      1.62415268064241
  H           0.83448225295900      1.05804942345570      2.84571432425836
  H           2.54738743957240      1.22136018390419      2.44206042591832
  H          -0.46127278575718      3.23372691745250     -1.41880717235534
  H          -0.07310522668150      3.72470182767824      0.23549152059229
  H           0.97903500944456      2.61061122524884     -0.64607694395493
  H           0.15390521752884     -2.81000592420375      0.40523688925249
  H          -2.76044990983806      0.74664019765490      2.53937172168615
  H           2.68241016343162     -0.73123329747568     -1.94081749287377
  H          -2.05263321504003     -1.19632234829239     -0.91197722710259
