! Engrad def2-TZVPPD wB97M-D3BJ 
%pal nprocs 8 end%pal nprocs 64 end 
%tddft 
 Iroot 2 Nroots 3 
sf true 
end 
*xyz 0 3 
O   0.4256893 1.13200425 0.67958883
C   0.38598344 -0.28311355 0.419428
C   0.40681974 -0.74927048 -0.96066491
H   -0.39119493 -0.64061918 1.00010332
H   1.37599332 -0.63461798 0.84008797
H   -0.45158611 -1.23815029 -1.32611425
H   1.03290459 -0.3081492 -1.68812629
*
