! Engrad def2-TZVPPD wB97M-D3BJ 
%pal nprocs 8 end%pal nprocs 64 end 
%tddft 
 Iroot 2 Nroots 3 
sf true 
end 
*xyz 0 3 
O   -0.61751185 0.00761343 0.58828212
C   0.54196514 0.56206152 0.1143957
C   1.38592602 -0.41234243 -0.5525476
H   1.14175274 0.95533964 0.97372318
H   0.24004725 1.42081991 -0.41780672
H   1.81704098 -1.09431499 0.10089679
H   1.5595758 -0.44658114 -1.59882935
*
