7
Properties=species:S:1:pos:R:3:REF_forces:R:3 REF_energy=-4188.008239664712 pbc="F F F"
O        1.74273372       0.89401049       0.04555394      -1.87435734       0.16635831      -1.44732432
C        0.98245231      -0.02327729       0.18300422       2.21759887      -1.00707841       2.31278556
C       -0.30324555      -0.67005472      -0.25101717      -0.38959432       1.11608047      -1.09727769
H        1.34175716      -0.74586932       0.96984088      -0.00268221      -0.30044938       0.21758992
H       -0.03000541      -1.67293152      -0.57448991       0.00334585      -0.00341306       0.00640223
H       -0.87962407      -0.16881069      -1.02731951       0.04702256       0.04481323      -0.00054373
H       -0.89934586      -0.76940958       0.65442755       0.00438804      -0.00523360       0.00503660
7
Properties=species:S:1:pos:R:3:REF_forces:R:3 REF_energy=-4184.7960550863045 pbc="F F F"
O        0.71282123       1.00204970      -0.00020197      -2.57750787      -0.73354678      -0.00039878
C        0.76567069      -0.33545183      -0.00010812       3.06669469      -1.34154626      -0.00034600
C       -0.64609334      -0.59451770       0.00009140      -0.71630528       2.48683838       0.00077205
H        1.26614252      -0.75993206       0.88269751       0.09917377      -0.13979988       0.06462659
H        1.26594218      -0.76022664      -0.88290044       0.09920455      -0.13890436      -0.06452394
H       -1.20465101      -0.53610855      -0.92389106       0.01419864      -0.06686288       0.05123267
H       -1.20421633      -0.53564512       0.92431268       0.01351471      -0.06720795      -0.05157853
7
Properties=species:S:1:pos:R:3:REF_forces:R:3 REF_energy=-4187.255588771574 pbc="F F F"
O        0.01728045       0.78982862      -0.00004412      -0.32444165      -2.24794542      -0.00019837
C        0.73135627      -0.43375712       0.00012084      -0.01562072       0.62096897      -0.00073496
C       -0.72512804      -0.44055773      -0.00012167       0.33691815       0.91975150       0.00020914
H        1.26436275      -0.65744896       0.91616796       0.00233987       0.14830578      -0.07068016
H        1.26416078      -0.65751627      -0.91605575       0.00412540       0.14313766       0.06572217
H       -1.25804466      -0.64937612      -0.91827072       0.00018564       0.20376838       0.07522701
H       -1.25781995      -0.64929747       0.91820347      -0.00297123       0.19516283      -0.06939817
7
Properties=species:S:1:pos:R:3:REF_forces:R:3 REF_energy=-4185.829100352156 pbc="F F F"
O        0.39528840       0.93858810      -0.00035003      -2.84158482      -1.60694082      -0.00240761
C        0.73740114      -0.36344695      -0.00016963       2.73402409      -1.23823344      -0.00108676
C       -0.66801227      -0.55104849      -0.00019090      -0.14528717       3.18256409       0.00729756
H        1.26976140      -0.70852442       0.89217361       0.12585752      -0.10021264       0.04685648
H        1.27021746      -0.70896950      -0.89207428       0.12503308      -0.09861437      -0.04702123
H       -1.21555899      -0.56246400      -0.92792600       0.00190723      -0.06874574       0.03601955
H       -1.21397830      -0.56086896       0.92853722      -0.00280230      -0.07180908      -0.03940670
7
Properties=species:S:1:pos:R:3:REF_forces:R:3 REF_energy=-4185.940199971633 pbc="F F F"
O        0.36697830       0.93006151      -0.00034549      -2.81660098      -1.66778057      -0.00205330
C        0.73512331      -0.36662052      -0.00013009       2.67562251      -1.20974199      -0.00066745
C       -0.67074552      -0.54436929      -0.00014532      -0.11019874       3.19560949       0.00596632
H        1.26935612      -0.70419199       0.89325993       0.12422273      -0.09326715       0.04437167
H        1.26970853      -0.70459329      -0.89316151       0.12344013      -0.09231991      -0.04453597
H       -1.21718309      -0.56687523      -0.92805540       0.00123328      -0.06777048       0.03445576
H       -1.21591694      -0.56540603       0.92857788      -0.00260194      -0.07048545      -0.03726689
7
Properties=species:S:1:pos:R:3:REF_forces:R:3 REF_energy=-4188.361739476413 pbc="F F F"
O        0.99561363       1.17158908       0.09278465       0.94372839      -0.74907749      -0.98799172
C        0.88721284       0.03957795      -0.31268700      -1.08853929       1.94483465       1.59594098
C       -0.31212664      -0.71314042       0.21424687      -0.00407543      -1.03785697      -0.43794918
H       -0.00082019      -1.61485350       0.74494215       0.03271851       0.01373199      -0.01226492
H        1.59893175      -0.42391059      -1.01275287       0.03763310      -0.18296992      -0.10498248
H       -0.95356492      -1.04268030      -0.60525531       0.02771680       0.01514353      -0.01858051
H       -0.85852113      -0.05510233       0.87872151       0.04476267       0.01088580      -0.02743749
7
Properties=species:S:1:pos:R:3:REF_forces:R:3 REF_energy=-4184.372992920557 pbc="F F F"
O        0.89168756       1.01262792       0.00011968      -2.26114029      -0.30699372       0.00011840
C        0.78191453      -0.32321474      -0.00013152       3.07057105      -1.41411689      -0.00137045
C       -0.63811012      -0.60091122       0.00003315      -1.05260822       2.04077672       0.00272777
H        1.25667012      -0.78944147       0.87867961       0.07260096      -0.10551705       0.07058190
H        1.25667773      -0.78892348      -0.87916508       0.07192804      -0.10591486      -0.07088848
H       -1.20374566      -0.53556540      -0.92153506       0.05018394      -0.05453616       0.06127865
H       -1.20290393      -0.53374555       0.92199922       0.04828947      -0.05536669      -0.06247872
7
Properties=species:S:1:pos:R:3:REF_forces:R:3 REF_energy=-4188.265176566595 pbc="F F F"
O        0.99433311       1.12154756       0.24028484       1.28984814      -0.55060239      -1.30818587
C        0.88314560       0.05116573      -0.31162431      -1.43241942       1.90304104       2.23682532
C       -0.32982422      -0.71542421       0.18131463       0.00914784      -1.21477903      -0.76435908
H       -0.00283402      -1.50865883       0.85687794       0.04557508       0.02414399      -0.00056549
H        1.58638309      -0.33597842      -1.06228703       0.02751518      -0.16393280      -0.11400170
H       -0.88362065      -1.20137661      -0.62345121       0.02265852       0.00294213      -0.02029928
H       -0.96092647      -0.01954951       0.71888513       0.04286704       0.00830559      -0.02466781
7
Properties=species:S:1:pos:R:3:REF_forces:R:3 REF_energy=-4185.082729223935 pbc="F F F"
O        0.61133788       0.98802597      -0.00029199      -2.72771514      -1.01934834       0.00014404
C        0.75643432      -0.34337963      -0.00009415       3.00933625      -1.32266685       0.00008185
C       -0.65156945      -0.58604926       0.00011758      -0.52218321       2.75592160      -0.00003360
H        1.26918196      -0.74326261       0.88534299       0.11481319      -0.13777540       0.05948479
H        1.26894717      -0.74369238      -0.88547304       0.11509195      -0.13707130      -0.05962414
H       -1.20644480      -0.54008441      -0.92527077       0.00648512      -0.06922995       0.04545538
H       -1.20614440      -0.53981206       0.92566938       0.00619403      -0.06927197      -0.04549433
7
Properties=species:S:1:pos:R:3:REF_forces:R:3 REF_energy=-4188.2442686632585 pbc="F F F"
O        1.63724074       0.95451622      -0.00258523      -1.58953106      -0.23184957      -0.98057761
C        0.96627013      -0.01641844       0.20778282       1.86540179      -0.30576869       1.57521681
C       -0.30491291      -0.67123148      -0.24312365      -0.35051766       0.78388226      -0.81997035
H        1.38187171      -0.69566395       0.99654242       0.01060737      -0.27948229       0.20543209
H       -0.03436890      -1.66989258      -0.58359186       0.00563392      -0.00065633       0.00755310
H       -0.85683883      -0.14614021      -1.02003705       0.04882132       0.04277112       0.00510274
H       -0.92453451      -0.78829589       0.64501256       0.00766503      -0.00273358       0.00480407
7
Properties=species:S:1:pos:R:3:REF_forces:R:3 REF_energy=-4185.608435559968 pbc="F F F"
O        0.45409864       0.95462743      -0.00031104      -2.85720631      -1.46410500       0.00063788
C        0.74251162      -0.35747034      -0.00002611       2.83491639      -1.27809616      -0.00066529
C       -0.66256892      -0.56318256       0.00010399      -0.24308745       3.11262774      -0.00015301
H        1.27056375      -0.71783036       0.89018233       0.12795022      -0.11356658       0.05007936
H        1.27027334      -0.71828810      -0.89022928       0.12860222      -0.11336555      -0.04991374
H       -1.21196899      -0.55368870      -0.92732459       0.00397371      -0.07127280       0.03852056
H       -1.21184128      -0.55340757       0.92760470       0.00378760      -0.07103109      -0.03841361
7
Properties=species:S:1:pos:R:3:REF_forces:R:3 REF_energy=-4188.13513045333 pbc="F F F"
O        1.68980019       0.92651620       0.03453871      -1.73857166      -0.03646687      -1.23002616
C        0.97269106      -0.01975908       0.20126746       2.04234803      -0.65573850       1.95542805
C       -0.30213800      -0.67011955      -0.25155575      -0.36509704       0.95576247      -0.95751279
H        1.35569977      -0.72332366       0.98961404       0.00224877      -0.29019551       0.21108299
H       -0.02717913      -1.66968704      -0.58468278       0.00513252      -0.00308020       0.00721010
H       -0.86198448      -0.15544330      -1.03043246       0.04781685       0.04463400       0.00308069
H       -0.91552391      -0.78171978       0.64125079       0.00565172      -0.00412234       0.00401028
7
Properties=species:S:1:pos:R:3:REF_forces:R:3 REF_energy=-4188.335280336692 pbc="F F F"
O        1.58091242       0.98113111      -0.04220413      -1.40111385      -0.40211423      -0.72012588
C        0.95978638      -0.01204022       0.21296972       1.66498074       0.02385639       1.18486128
C       -0.30799406      -0.67325245      -0.23336576      -0.34400754       0.60324381      -0.67939001
H        1.40979477      -0.66563685       1.00050778       0.01958881      -0.26279701       0.19837297
H       -0.04156554      -1.67009522      -0.58340090       0.00784893       0.00273923       0.00930628
H       -0.85477551      -0.13767203      -1.00612376       0.05000638       0.04148935       0.00797461
H       -0.93121809      -0.79771858       0.65161706       0.00888507      -0.00133202       0.00358461
7
Properties=species:S:1:pos:R:3:REF_forces:R:3 REF_energy=-4186.384122659218 pbc="F F F"
O        0.25917297       0.89325751      -0.00017198      -2.58717877      -1.81485824      -0.00209510
C        0.72771820      -0.38035759       0.00002451       2.35535902      -1.04904376      -0.00241836
C       -0.68301514      -0.51500549      -0.00018846       0.02623223       3.09986425       0.00640930
H        1.26692517      -0.68843502       0.89798394       0.10995657      -0.06314166       0.03455957
H        1.26699830      -0.68876628      -0.89781581       0.11042080      -0.06191118      -0.03382788
H       -1.22530753      -0.58734226      -0.92754643      -0.00339578      -0.05586317       0.02449067
H       -1.22456329      -0.58638368       0.92771423      -0.00643931      -0.05787633      -0.02711427
7
Properties=species:S:1:pos:R:3:REF_forces:R:3 REF_energy=-4185.183462852005 pbc="F F F"
O        0.57865540       0.98226040      -0.00030630      -2.76765308      -1.11362608       0.00017832
C        0.75348999      -0.34610095      -0.00007772       2.98182557      -1.31731395      -0.00005741
C       -0.65356428      -0.58236608       0.00011924      -0.46028970       2.84065908       0.00013859
H        1.26981308      -0.73792525       0.88626609       0.11907839      -0.13449353       0.05774253
H        1.26954743      -0.73836632      -0.88638173       0.11948231      -0.13396113      -0.05791883
H       -1.20728901      -0.54209853      -0.92572590       0.00545015      -0.06980694       0.04404664
H       -1.20702829      -0.54182362       0.92610633       0.00511960      -0.06964928      -0.04388130
7
Properties=species:S:1:pos:R:3:REF_forces:R:3 REF_energy=-4188.460440682224 pbc="F F F"
O        1.46891798       1.02315377      -0.05665228      -0.94537282      -0.64116454      -0.26576674
C        0.94326161      -0.01089367       0.24946597       1.15007201       0.60663842       0.44370191
C       -0.31018493      -0.67202574      -0.23341644      -0.30053402       0.24359658      -0.39146495
H        1.43978072      -0.62764725       1.03120329       0.02387503      -0.23805602       0.17686341
H       -0.04708017      -1.65863253      -0.61521034       0.01252861       0.00623646       0.01213867
H       -0.82324635      -0.09744041      -1.00003792       0.05203262       0.03585118       0.01511792
H       -0.96495679      -0.82446575       0.62464772       0.01583627       0.00148008       0.00682438
7
Properties=species:S:1:pos:R:3:REF_forces:R:3 REF_energy=-4186.893409907078 pbc="F F F"
O        0.13462619       0.84240168      -0.00008494      -2.03231339      -1.91714507      -0.00038813
C        0.72412126      -0.40241432       0.00002921       1.64251703      -0.62473762      -0.00085427
C       -0.70147080      -0.47631501      -0.00004730       0.26895720       2.61236322       0.00134372
H        1.26349758      -0.67173423       0.90567513       0.08344558      -0.02676849       0.01202335
H        1.26350315      -0.67177102      -0.90560892       0.08369781      -0.02703906      -0.01178518
H       -1.23858627      -0.61722527      -0.92411246      -0.01833885      -0.00601713       0.00676908
H       -1.23847872      -0.61679695       0.92414929      -0.01905899      -0.00699672      -0.00730923
7
Properties=species:S:1:pos:R:3:REF_forces:R:3 REF_energy=-4187.211383063153 pbc="F F F"
O        0.04052117       0.80026645      -0.00004974      -1.16705207      -2.21610143      -0.00343151
C        0.72887055      -0.42655939       0.00014334       0.55857768       0.13621038      -0.00103785
C       -0.71981541      -0.44732961      -0.00015815       0.56561482       1.70801265       0.00587372
H        1.26369013      -0.65987140       0.91392087       0.03723446       0.04768692      -0.02981601
H        1.26339257      -0.66036675      -0.91372848       0.03996263       0.04829950       0.02934279
H       -1.25378105      -0.64263933      -0.91950956      -0.01531587       0.13542363       0.02607904
H       -1.25342330      -0.64296103       0.91938172      -0.01773595       0.13568048      -0.02690064
7
Properties=species:S:1:pos:R:3:REF_forces:R:3 REF_energy=-4186.798627475881 pbc="F F F"
O        0.15883014       0.85288596      -0.00010104      -2.16292460      -1.88643479      -0.00050672
C        0.72415586      -0.39746727       0.00003152       1.82439688      -0.73502004      -0.00089646
C       -0.69744200      -0.48396327      -0.00005835       0.20021201       2.74187592       0.00183404
H        1.26401744      -0.67483984       0.90395818       0.09019807      -0.03492528       0.01758430
H        1.26402819      -0.67488351      -0.90388220       0.09050405      -0.03525820      -0.01731756
H       -1.23553192      -0.61102380      -0.92503285      -0.01539827      -0.02252713       0.00998911
H       -1.23537558      -0.61048257       0.92508474      -0.01633539      -0.02377746      -0.01064382
7
Properties=species:S:1:pos:R:3:REF_forces:R:3 REF_energy=-4186.052091631753 pbc="F F F"
O        0.33924172       0.92124285      -0.00033195      -2.77989392      -1.71942955      -0.00162721
C        0.73299369      -0.36990222      -0.00009463       2.61095001      -1.17881868      -0.00064615
C       -0.67360618      -0.53738733      -0.00010950      -0.07623604       3.19422601       0.00466719
H        1.26883982      -0.70001346       0.89438458       0.12164496      -0.08576205       0.04190376
H        1.26910218      -0.70036752      -0.89428656       0.12110393      -0.08513806      -0.04193948
H       -1.21894499      -0.57158971      -0.92808867       0.00020749      -0.06600064       0.03264033
H       -1.21795024      -0.57024241       0.92852672      -0.00279059      -0.06849919      -0.03491601
7
Properties=species:S:1:pos:R:3:REF_forces:R:3 REF_energy=-4188.494289711653 pbc="F F F"
O        1.25384958       1.09380336      -0.09841657      -0.05061930      -0.85397589       0.44399856
C        0.92176426       0.00123016       0.27936528       0.14085500       1.41944016      -0.69268498
C       -0.31919889      -0.68195634      -0.21671483      -0.21789205      -0.39321315       0.06423347
H        1.53000999      -0.54998293       1.02012721       0.02990141      -0.20793645       0.13656754
H       -0.05483411      -1.63608646      -0.67476694       0.02316394       0.01044123       0.01321460
H       -0.83186893      -0.04986541      -0.93446129       0.05216881       0.02411916       0.02387730
H       -0.97572386      -0.90719163       0.62486713       0.02432176       0.00790994       0.01138032
7
Properties=species:S:1:pos:R:3:REF_forces:R:3 REF_energy=-4185.392232455858 pbc="F F F"
O        0.51511210       0.96927539      -0.00030660      -2.83001255      -1.29537947       0.00042850
C        0.74783832      -0.35167133      -0.00004131       2.91679802      -1.30543716      -0.00075024
C       -0.65785217      -0.57368118       0.00011480      -0.34450649       2.99332822       0.00001381
H        1.27053414      -0.72761725       0.88818554       0.12511187      -0.12471425       0.05392594
H        1.27021650      -0.72805486      -0.88827775       0.12571753      -0.12434383      -0.05376148
H       -1.20935960      -0.54718561      -0.92660695       0.00452587      -0.07052399       0.04152868
H       -1.20918060      -0.54686415       0.92693227       0.00422561      -0.07041664      -0.04145358
7
Properties=species:S:1:pos:R:3:REF_forces:R:3 REF_energy=-4184.706104066466 pbc="F F F"
O        0.74773117       1.00554621      -0.00016844      -2.51855658      -0.64124773      -0.00024008
C        0.76885136      -0.33289692      -0.00010218       3.07628322      -1.35048595      -0.00102567
C       -0.64444538      -0.59649606       0.00006171      -0.78041367       2.39589212       0.00178452
H        1.26471237      -0.76567671       0.88184191       0.09335571      -0.13729082       0.06653136
H        1.26454650      -0.76589695      -0.88206149       0.09321208      -0.13623170      -0.06607820
H       -1.20430853      -0.53543131      -0.92342634       0.01823723      -0.06543137       0.05242863
H       -1.20376409      -0.53485585       0.92385483       0.01719072      -0.06588559      -0.05325495
7
Properties=species:S:1:pos:R:3:REF_forces:R:3 REF_energy=-4186.163523271092 pbc="F F F"
O        0.31205912       0.91214557      -0.00031729      -2.72854021      -1.76051339      -0.00125953
C        0.73103005      -0.37331078      -0.00006503       2.53702509      -1.14038548      -0.00050237
C       -0.67658511      -0.53014319      -0.00007905      -0.04378663       3.17841331       0.00354796
H        1.26821775      -0.69598667       0.89556247       0.11879939      -0.07857081       0.03931236
H        1.26841615      -0.69628447      -0.89546641       0.11840721      -0.07850555      -0.03931130
H       -1.22084359      -0.57658368      -0.92801462      -0.00090553      -0.06370083       0.03075690
H       -1.22008294      -0.57536145       0.92837993      -0.00329276      -0.06588360      -0.03247147
1
Properties=species:S:1:pos:R:3 config_type=IsolatedAtom REF_energy=-2041.370068087562 energy=-2041.370068087562 free_energy=-2041.370068087562 dipole="2.4871328896500532e-08 1.3758607474659871e-08 -4.233417684510729e-09" pbc="F F F"
O        0.00000000       0.00000000       0.00000000
1
Properties=species:S:1:pos:R:3 config_type=IsolatedAtom REF_energy=-1028.9771505969138 energy=-1028.9771505969138 free_energy=-1028.9771505969138 dipole="-4.603841731905418e-08 3.016310100213894e-08 2.69880377387559e-08" pbc="F F F"
C        0.00000000       0.00000000       0.00000000
1
Properties=species:S:1:pos:R:3 config_type=IsolatedAtom REF_energy=-13.568778219076226 energy=-13.568778219076226 free_energy=-13.568778219076226 dipole="-0.0012331030238405477 -0.0019389931429228675 -6.989901774337778e-06" pbc="F F F"
H        0.00000000       0.00000000       0.00000000
