! Engrad def2-TZVPPD wB97M-D3BJ 
%pal nprocs 8 end%pal nprocs 32 end 
%tddft Nroots 2 Iroot 2 
sf true 
end 
*xyz 0 3 
O   0.0983771 0.85844283 -0.00051294
C   0.68671219 -0.39418655 0.00017371
C   -0.73379626 -0.547028 0.00075817
H   1.2397575 -0.64267614 0.90496941
H   1.23782248 -0.63203463 -0.91094071
H   -1.26297275 -0.67293268 -0.9266294
H   -1.25975404 -0.66138654 0.92907126
*
