! EnGrad wB97M-D3BJ def2-TZVPPD 
%pal nprocs 8 end%pal nprocs 16 end 
%tddft 
 sf true 
 nroots 2 Iroot 2 end 
*xyz 0 3 
O   -0.03365194313818 0.76696468110619 -2.99917095e-05
C   0.75105332758543 -0.46124000095452 -5.1001832e-07
C   -0.73453590961023 -0.41012100611518 1.493199212e-05
H   1.27577641437743 -0.65396348809582 0.92401243436493
H   1.27574811731763 -0.6541505394175 -0.92399482153356
H   -1.26607805254104 -0.6529202357118 -0.91479980631883
H   -1.26611195399103 -0.65296941081136 0.91479776322315
*
