7
Coordinates from ORCA-job orca E -153.889712670930
  O          -0.00088044472167      0.78249647040915     -0.00004411262075
  C           0.73109923939042     -0.43833304582829      0.00007985516316
  C          -0.73049955055027     -0.43927130899723     -0.00007703166944
  H           1.26354055509581     -0.65479162224611      0.91747390881575
  H           1.26339436689592     -0.65489808929960     -0.91739206766672
  H          -1.26230259386134     -0.65681608203431     -0.91759985796758
  H          -1.26215157224887     -0.65678632200361      0.91755930594559
