! Engrad def2-TZVPPD wB97M-D3BJ 
%pal nprocs 8 end%pal nprocs 64 end 
%tddft 
 Iroot 2 Nroots 3 
sf true 
end 
*xyz 0 3 
O   3.33336162 0.81221855 -0.25915359
O   -0.88702382 0.50450889 -2.78673505
O   0.57947502 -2.76641077 -0.94577158
O   -3.55589226 -1.23391143 0.44717409
N   0.13960437 -1.44585813 0.80711247
N   -2.18676704 0.40790362 1.06016627
N   1.95499186 -0.90152448 -0.58478298
N   -2.03430623 -0.43337976 -1.08974342
C   1.55477022 0.53129893 1.36495907
C   -0.48477917 1.212977 -0.49935097
C   0.2410996 -0.15854627 1.50069297
C   -0.80343517 0.86520397 0.93254975
C   2.08574307 1.4294244 2.45249769
C   0.47760072 2.32335177 -0.90253391
C   2.36377271 0.20315718 0.16977278
C   -1.13778348 0.49814253 -1.55027868
C   0.86498716 -1.76110828 -0.33183171
C   -2.65641218 -0.50631426 0.12788624
H   0.05370462 -0.22433049 2.53354851
H   -0.72786106 1.71719236 1.58371721
H   1.36523276 2.08413943 2.97459614
H   2.72934016 0.94287294 3.15910617
H   2.84145054 2.09737962 2.04646868
H   -0.01207585 2.94403626 -1.5861521
H   0.75777442 2.94245527 -0.03276728
H   1.37833217 1.87365095 -1.27871078
H   -0.3136941 -2.32955338 1.08017181
H   -2.36908356 -0.04343628 2.01088427
H   2.4622147 -1.21064576 -1.37019527
H   -2.13097545 -1.2553852 -1.63277507
*
