! EnGrad wB97M-D3BJ def2-TZVPPD 
%pal nprocs 8 end%pal nprocs 16 end 
%tddft 
 sf true 
 nroots 2 Iroot 1 end 
*xyz 0 3 
O   0.59414395776798 1.1876840953348 0.31908582032432
C   0.60039308740096 0.16232482352908 -0.32165409112694
C   -0.4417644477547 -0.82170372198089 0.17825440197601
H   0.04172847364236 -1.51379377768068 0.8706021196197
H   1.29558805125726 -0.05039704437894 -1.14597425383719
H   -0.89107908176485 -1.42510350029851 -0.6113438439543
H   -1.19681004054903 -0.25741087452485 0.71102984699841
*
