! Engrad def2-TZVPPD wB97M-D3BJ 
%pal nprocs 8 end%pal nprocs 64 end 
%tddft 
 Iroot 1 Nroots 3 
sf true 
end 
*xyz 0 3 
O   0.62093624 -0.64549925 1.00972739
C   0.51918233 -0.22204464 -0.34374321
C   0.03176072 1.14622331 -0.50029576
H   -0.23397557 -1.01175128 -0.83702498
H   1.45528186 -0.23887121 -0.77702294
H   0.62017723 1.86498949 -0.90726946
H   -0.99701476 1.36856034 -0.31559833
*
