7
Coordinates from ORCA-job orca E -153.822979897273
  O           0.29999190340835      0.98683292261300     -0.00219002164951
  C           0.63614871222565     -0.31086123999725     -0.00049455954140
  C          -0.73792089194002     -0.69016385755063      0.00050623568830
  H           1.19296206841044     -0.63816089031937      0.88702161462056
  H           1.19350045568432     -0.64018632917431     -0.88684725341716
  H          -1.29199897294028     -0.71460970380263     -0.92532387674534
  H          -1.29048327484846     -0.71125090176880      0.92732786104456
