! Engrad def2-TZVPPD wB97M-D3BJ 
%pal nprocs 8 end%pal nprocs 64 end 
%tddft Nroots 2 Iroot 2 
sf true 
end 
*xyz 0 3 
O   2.86446701 1.06992513 -0.72218645
O   -0.41877177 0.84012794 -2.04806362
O   0.52551594 -2.75913624 -1.47142175
O   -2.61195068 -1.74544267 0.96742244
N   0.71704312 -2.00547757 0.66143227
N   -2.46913934 0.49970777 1.33541357
N   1.82686129 -0.93711727 -1.04883707
N   -1.61203042 -0.41005217 -0.59153278
C   1.78253597 0.10013699 1.11761529
C   -1.11219238 1.8866403 -0.02729627
C   1.03009542 -1.00553946 1.54031155
C   -1.89959434 1.71189287 1.0385214
C   2.13437446 1.20780067 2.04363994
C   -0.41389355 3.15907684 -0.37773912
C   2.20818601 0.16057177 -0.23884251
C   -0.99662017 0.77244998 -0.98521668
C   0.98498809 -1.96007144 -0.68690544
C   -2.25826806 -0.65074335 0.59586386
H   0.68705295 -1.10629866 2.54588304
H   -2.06906845 2.4996463 1.74439345
H   1.70481912 2.14017804 1.68002614
H   1.78277001 1.0174777 3.05516284
H   3.22332762 1.31089354 2.08245237
H   -0.76278392 3.5530872 -1.32143531
H   -0.57079519 3.90182647 0.39057216
H   0.66209293 2.97892028 -0.46883442
H   0.03836987 -2.69722112 0.95087488
H   -2.9520257 0.33810731 2.18782512
H   1.98957401 -0.84081 -2.04562737
H   -1.46795282 -1.21440011 -1.19141644
*
