! Engrad def2-TZVPPD wB97M-D3BJ 
%pal nprocs 8 end%pal nprocs 64 end 
%tddft 
 Iroot 2 Nroots 3 
sf true 
end 
*xyz 0 3 
O   1.31575422 0.63933563 -0.37848565
C   0.42196526 0.28014814 0.53365717
C   -0.55508494 -0.78401347 0.09920431
H   -0.16201416 1.16611991 0.75565979
H   0.95187237 0.03130393 1.43126723
H   -0.76210957 -0.7961262 -0.93297513
H   -0.55472799 -1.86539614 0.48979551
*
