! Engrad def2-TZVPPD wB97M-D3BJ 
%pal nprocs 8 end%pal nprocs 64 end 
%tddft 
 Iroot 1 Nroots 3 
sf true 
end 
*xyz 0 3 
O   0.90886559 -0.89398156 0.53029769
C   0.62013277 0.07551283 -0.39237742
C   -0.36582197 1.10679652 0.12591818
H   0.03000133 -0.38664162 -1.23870504
H   1.42312471 0.40954266 -0.99671816
H   -0.31047362 2.1216768 -0.20887466
H   -1.29930842 0.70604335 0.34010135
*
