! Engrad def2-TZVPPD wB97M-D3BJ 
%pal nprocs 8 end%pal nprocs 64 end 
 %tddft nroots 2 Iroot 2 
sf true 
end 
*xyz 0 3 
O   3.43874003245525 0.67045564299823 -0.18265848272724
O   -0.77144726389179 0.86160969627161 -2.52856447284361
O   0.71541468778718 -2.82234277763708 -1.17433642436403
O   -3.57703035369704 -1.07593261979327 0.42504332739258
N   0.21968726628326 -1.57668810113861 0.65146642794561
N   -2.01272975057627 0.35804280882918 1.26304901200763
N   2.08516214819129 -1.0886981974883 -0.64706720714268
N   -1.97125802875964 -0.29984688178165 -0.9824901419767
C   1.5303626676591 0.39713234023085 1.17657263074453
C   -0.52418881678496 1.43599015518106 -0.23395658767707
C   0.33904988437573 -0.39338197681596 1.45413931122714
C   -0.57953839711395 0.74622779037861 1.13984435343987
C   1.99103897942439 1.46489598398171 2.0913481626825
C   -0.41483084239848 2.90367344376768 -0.32965504608503
C   2.43554272686112 0.03613062306719 0.0793741830208
C   -1.0440083707312 0.66128529978515 -1.36601193504826
C   0.97355525849061 -1.89355047220881 -0.44475784769595
C   -2.59314889586292 -0.38842315198957 0.26658970919752
H   0.25346600336166 -0.65621153890997 2.51293819093483
H   -0.42284356875786 1.5156339304286 1.8893175752831
H   1.7673307261 2.45934270466593 1.68912293725735
H   1.52707716638535 1.38510823930196 3.07232403243493
H   3.07449643953731 1.42358727566229 2.18156829149745
H   -1.29835430592515 3.38850028183659 0.10130420102064
H   0.44800481790614 3.27345140480455 0.23061904991942
H   -0.32842909477207 3.20869935895823 -1.36839052540841
H   -0.60801386113996 -2.13862405437344 0.74667026540255
H   -2.44779139765716 0.21269124216491 2.15964354415058
H   2.64554060619577 -1.30919646900504 -1.45354092507657
H   -2.39825646294574 -0.84456198117265 -1.71490560951348
*
