! EnGrad wB97M-D3BJ def2-TZVPPD 
%pal nprocs 8 end%pal nprocs 16 end 
%tddft 
 sf true 
 nroots 2 Iroot 1 end 
*xyz 0 3 
O   0.44510795699224 1.27642034171504 0.11105093158913
C   0.6112998527075 0.15413843507387 -0.30671803863943
C   -0.43186041554195 -0.82016158522758 0.20156828736248
H   0.03353854423396 -1.62414048338789 0.77548345849429
H   1.42919289358642 -0.13831482505444 -0.98064510800758
H   -0.96137623578191 -1.29943512741752 -0.62420664675557
H   -1.12370259619627 -0.26690675570147 0.82346711595668
*
