! Engrad def2-TZVPPD wB97M-D3BJ 
%pal nprocs 8 end%pal nprocs 64 end 
%tddft 
 Iroot 2 Nroots 3 
sf true 
end 
*xyz 0 3 
O   1.26269406 -0.61872992 0.07679784
C   0.46620579 0.333823 0.56753517
C   -0.56674573 0.53638307 -0.48035287
H   0.8766783 1.23147699 1.05167012
H   -0.01812361 -0.22091012 1.42835695
H   -1.04990538 1.61832067 -0.84948887
H   -1.1949849 -0.31511418 -0.76026435
*
