! EnGrad wB97M-D3BJ def2-TZVPPD 
%pal nprocs 8 end%pal nprocs 16 end 
%tddft 
 sf true 
 nroots 2 Iroot 1 end 
*xyz 0 3 
O   0.37627461212555 1.03280729198054 -0.00266506549182
C   0.62245400616608 -0.28292032261431 -0.00058055998311
C   -0.74261269785556 -0.72304790441949 0.00064979976779
H   1.17621430858948 -0.63155801128998 0.88330239820321
H   1.17651159953858 -0.63427559537005 -0.88314277828032
H   -1.30418488811129 -0.74177872456183 -0.92290404384969
H   -1.30245694045285 -0.73762673372487 0.92534024963394
*
