! Engrad def2-TZVPPD wB97M-D3BJ 
%pal nprocs 8 end%pal nprocs 64 end 
%tddft Nroots 2 Iroot 2 
sf true 
end 
*xyz 0 3 
O   2.99036314 0.45835455 -1.07404274
O   -0.40497532 1.54812246 -2.20503506
O   0.4077883 -3.12906928 -0.25823005
O   -3.04687605 -1.68601541 -0.5296456
N   0.35314924 -1.46462931 1.26954536
N   -2.17062005 -0.19223536 0.94236396
N   1.47036331 -1.19465779 -0.76711829
N   -1.44249773 -0.24098107 -1.25750173
C   1.61276426 0.5814133 0.85134445
C   -0.71229146 1.56961981 0.1484492
C   0.38938359 -0.06070364 1.58557114
C   -1.07723936 0.6823888 1.28431306
C   2.41459349 1.62182282 1.52127966
C   -0.59637044 3.02998698 0.30730111
C   2.09052103 -0.01247774 -0.39693788
C   -0.81221899 1.00074234 -1.1913701
C   0.71084409 -2.00801559 0.06392345
C   -2.27675016 -0.79368169 -0.29201945
H   0.55620353 0.02230074 2.63522294
H   -1.36138143 1.25379453 2.15812204
H   3.23707403 1.9492861 0.88511482
H   1.81059523 2.47057079 1.81542884
H   2.80352577 1.18289793 2.44495896
H   -1.60018684 3.44587791 0.47519835
H   -0.00472146 3.29461905 1.16423169
H   -0.1799668 3.46732461 -0.59320508
H   -0.24947418 -2.08742625 1.79900281
H   -2.757077 -0.62371346 1.65510971
H   1.77904401 -1.65375403 -1.62306828
H   -1.57388145 -0.63798775 -2.17509459
*
