7
Coordinates from ORCA-job orca E -153.867664762319
  O           0.23349256016013      0.88343912752086     -0.00014596725730
  C           0.72637427156619     -0.38428962817065      0.00003023433034
  C          -0.68637426295489     -0.50725430938782     -0.00013591713145
  H           1.26613276618373     -0.68486416324155      0.89935442212305
  H           1.26617753837733     -0.68505243295619     -0.89923052523803
  H          -1.22757292589495     -0.59306404886841     -0.92709896283606
  H          -1.22706676665828     -0.59217819231708      0.92722671600944
