! Engrad def2-TZVPPD wB97M-D3BJ 
%pal nprocs 8 end%pal nprocs 64 end 
%tddft 
 Iroot 1 Nroots 3 
sf true 
end 
*xyz 0 3 
O   0.86668042 -0.37973308 1.00706789
C   0.41990415 -0.3545048 -0.36944971
C   -0.14399277 0.98764417 -0.48057855
H   -0.27970427 -1.11369833 -0.62426479
H   1.2041317 -0.64784925 -1.07453371
H   -0.04490739 1.63051988 -1.40552051
H   -0.67774227 1.28518492 0.36259659
*
