! Engrad def2-TZVPPD wB97M-D3BJ 
%pal nprocs 8 end%pal nprocs 64 end 
%tddft Nroots 2 Iroot 2 
sf true 
end 
*xyz 0 3 
O   2.30983275 -0.28622386 -1.16902298
O   -0.19407883 2.79275293 -2.28270904
O   0.20872811 -3.78592034 0.77985253
O   -2.14530469 -1.08721166 -1.39405236
N   0.38792546 -1.88321318 1.99536842
N   -1.38288803 -0.1722235 0.52669819
N   1.06277623 -1.92934445 -0.22952903
N   -0.79664214 0.721624 -1.61348947
C   1.33343979 0.17176673 0.96008717
C   -0.32536729 2.67756724 -0.09556654
C   0.58430864 -0.46708397 2.06921448
C   -0.35440801 0.4228404 1.30561146
C   2.26953483 1.31595729 1.23057417
C   -1.52159418 3.37193035 0.34361906
C   1.62474792 -0.66612238 -0.24008101
C   -0.43762985 2.02757451 -1.3686511
C   0.51965001 -2.62058685 0.84485135
C   -1.48017802 -0.23132907 -0.85787324
H   0.83446905 -0.15748072 3.07068639
H   -0.50626746 1.39980447 1.70635018
H   2.41806333 1.90638588 0.31675905
H   1.87781864 1.96160085 1.98973363
H   3.24098128 0.92849798 1.55618658
H   -2.42032457 2.74264516 0.26418935
H   -1.4390337 3.78708803 1.34581804
H   -1.66464044 4.2191605 -0.35933717
H   -0.03315531 -2.37157214 2.76879961
H   -1.840951 -0.96778012 0.93180389
H   1.24069437 -2.49459946 -1.03499238
H   -0.83189155 0.50589246 -2.58285223
*
