7
Coordinates from ORCA-job orca E -153.856623790799
  O           0.16740519280549      0.89786245554108     -0.00059017095855
  C           0.66498037913586     -0.35949899241653     -0.00004034558777
  C          -0.73066861560407     -0.59986667616379      0.00007596070780
  H           1.22064706208977     -0.64857669457265      0.89570720493304
  H           1.22051043335385     -0.64884881399733     -0.89578825092688
  H          -1.27058114474579     -0.68087453063515     -0.92800037599950
  H          -1.27009330703511     -0.67859674775563      0.92863597783185
