30
Coordinates from ORCA-job orca E -908.738388596923
  O           3.43749300215048      0.39546580768483     -0.72444953100900
  O          -0.94859086991033      1.37494095376153     -2.48923037836789
  O           0.43357660834290     -2.88324613856578     -0.53898348760115
  O          -2.99914492430993     -1.82079982693910     -0.10566078496776
  N           0.36838468802564     -1.32484246400556      1.11459109224781
  N          -2.11510071840420     -0.06512678001527      1.04317234168413
  N           1.59567018710056     -0.94285796010965     -0.82195590088754
  N          -1.59566812038333     -0.38375869655979     -1.19226616503291
  C           1.93221102479421      0.47469369387020      1.08219466536216
  C          -1.00170711084193      1.67932784046515     -0.14295064345478
  C           0.42439556184954      0.05753473012013      1.50204732741500
  C          -1.02942535241740      0.86623966853237      1.13799570536635
  C           2.78022667339489      1.21205995716424      2.02549957532461
  C          -1.01268094570141      3.14947087665472     -0.15024232425958
  C           2.40093626711831      0.02159930662371     -0.19925203530718
  C          -1.16238537214682      0.92918638465411     -1.37791419854938
  C           0.76685500457035     -1.79932974469745     -0.12089989516761
  C          -2.29253955534138     -0.84392517468296     -0.07553251893098
  H           0.41954979472550      0.07091353929009      2.59407787019761
  H          -1.20709330030860      1.53202492689329      1.97811245008100
  H           3.78546789736224      1.31895421227058      1.62990461218478
  H           2.37385320981623      2.20621587243469      2.23798120810659
  H           2.81769199119458      0.68986689405693      2.98865798295310
  H          -2.01504796705099      3.51554464214850      0.11026750666303
  H          -0.32725722570888      3.56171812645240      0.58974606078833
  H          -0.76922969945162      3.52339275342006     -1.14039077962821
  H          -0.23484103758706     -1.96652361146103      1.60107906873514
  H          -2.60005694073401     -0.38636955978956      1.86218961376935
  H           1.95536635428203     -1.31356607549206     -1.68658076608037
  H          -1.72830912442953     -0.93380415417933     -2.02660767163465
