! EnGrad wB97M-D3BJ def2-TZVPPD 
%pal nprocs 8 end%pal nprocs 16 end 
%tddft 
 sf true 
 nroots 2 Iroot 2 end 
*xyz 0 3 
O   0.49431985671645 1.09692239228989 -0.00250852246792
C   0.60172921163147 -0.23942271194348 -0.00045474753711
C   -0.75040551220503 -0.75734514760562 0.00112991051326
H   1.14811907960449 -0.61902503256131 0.87854045605398
H   1.14645831311969 -0.6217774420315 -0.87931041580561
H   -1.3191496384691 -0.79131455334272 -0.92036500931963
H   -1.31887131039797 -0.78643750480525 0.92296832856301
*
