! Engrad def2-TZVPPD wB97M-D3BJ 
%pal nprocs 8 end%pal nprocs 64 end 
%tddft 
 Iroot 2 Nroots 3 
sf true 
end 
*xyz 0 3 
O   2.73412191 -0.96797123 -2.24127059
O   -2.30916852 1.53053618 -1.36333495
O   -1.34010754 -2.61577754 -1.13635689
O   -2.27028574 0.99763808 3.0886924
N   -0.06220666 -1.69198084 0.47911566
N   -0.29167276 0.89278445 2.11744133
N   0.50187354 -1.53558149 -1.7438836
N   -2.20691771 1.17118766 0.88193365
C   2.09869823 -0.77407777 -0.10279443
C   -0.17106381 1.27942657 -0.30675133
C   0.98343027 -0.72225405 0.80908017
C   0.51386456 0.73677994 0.91411881
C   3.41002079 -0.21748979 0.29509597
C   0.4522197 1.82420407 -1.51150561
C   1.78413313 -1.08097772 -1.47350726
C   -1.66337665 1.36727049 -0.3740184
C   -0.37708895 -2.01642604 -0.82721238
C   -1.60238603 1.02251166 2.11234361
H   1.37062433 -1.05025678 1.81060026
H   1.48985397 1.2050943 1.03778118
H   3.46489035 -0.10692802 1.38439688
H   4.16156243 -0.84564791 -0.02138961
H   3.57879068 0.75547966 -0.19490136
H   -0.31348797 2.49407154 -2.02200222
H   1.22864028 2.42577064 -1.13313617
H   0.90274835 1.17585342 -2.25796571
H   -0.57751095 -2.20846818 1.15735774
H   0.17953019 0.58553676 2.95403957
H   0.35146348 -1.58938216 -2.7302496
H   -3.20313042 1.3477549 0.89425045
*
