! EnGrad wB97M-D3BJ def2-TZVPPD 
%pal nprocs 8 end%pal nprocs 16 end 
%tddft 
 sf true 
 nroots 2 Iroot 1 end 
*xyz 0 3 
O   0.62466737508506 1.20320175202748 0.31970685460476
C   0.61321688143855 0.15725685823157 -0.28325007603717
C   -0.45557749707256 -0.81420886736095 0.16443686010996
H   -0.00367404429058 -1.54436004830478 0.8389030062844
H   1.33203450841827 -0.09064075133438 -1.07885766635927
H   -0.89473004956822 -1.37306431992916 -0.66221456087154
H   -1.21373717401051 -0.25658462332978 0.70127558226886
*
