! Engrad def2-TZVPPD wB97M-D3BJ 
%pal nprocs 8 end%pal nprocs 32 end 
%tddft Nroots 2 Iroot 2 
sf true 
end 
*xyz 0 3 
O   0.71203177 1.38522179 0.08188602
C   0.55989539 0.15350692 -0.26617171
C   -0.45347346 -0.81259295 0.22625184
H   0.04568386 -1.68104395 0.6605216
H   1.21719138 -0.2135741 -1.02961001
H   -1.06373502 -1.1805779 -0.63471079
H   -1.15748433 -0.38663938 0.93925547
*
