! Engrad def2-TZVPPD wB97M-D3BJ 
%pal nprocs 8 end%pal nprocs 64 end 
 %tddft nroots 2 Iroot 1 
sf true 
end 
*xyz 0 3 
O   3.55293268338116 0.8579441931322 0.18674450407563
O   -1.37020627630107 0.62849991829239 -2.5404917166049
O   1.1015468765129 -2.53523850726212 -1.56479827487179
O   -3.77922116806435 -0.66831875193487 0.99778953222294
N   0.29765268369463 -1.48927831065067 0.27747635425138
N   -1.91256122009163 0.58620142361716 1.40368962158234
N   2.36664734220935 -0.90711591055355 -0.61154632402273
N   -2.29267226741238 -0.34154754759209 -0.69594238174573
C   1.54494026267988 0.32258183342507 1.29471190867301
C   -0.58678067330249 1.31104840746687 -0.40490561426307
C   0.33321612750431 -0.47031670797872 1.28116197750228
C   -0.45698475204029 0.77784841170692 1.00014445184606
C   1.92363586029388 1.1848838880981 2.43587518687539
C   -0.36895940167353 2.74299419566016 -0.70928576788221
C   2.56367585018226 0.15206129469211 0.25751590692383
C   -1.39397654788251 0.51966235355235 -1.33397760840479
C   1.2334892553336 -1.70486571290013 -0.69758372976018
C   -2.73877444995249 -0.17405652037435 0.62318840709125
H   0.08476005672053 -0.87771557752903 2.26400869257659
H   -0.14704106760297 1.60479513643715 1.62419400426203
H   2.07027911937551 2.2177514950266 2.11457079101158
H   1.19106546857855 1.15237940710651 3.23794288156722
H   2.89329224760232 0.85887567689302 2.81509151834942
H   -1.26945734902975 3.33544257492409 -0.50493678314991
H   0.44827494855751 3.15940879201574 -0.12478133752526
H   -0.15464181264581 2.85915625133604 -1.7701233195092
H   -0.55475477290364 -2.00201317090768 0.14102957189697
H   -2.22449227091217 0.66478758501725 2.35820620142588
H   3.0377939635752 -1.02407878634693 -1.3528154997147
H   -2.94007871638655 -0.82677733436967 -1.29755315467936
*
