! EnGrad wB97M-D3BJ def2-TZVPPD 
%pal nprocs 8 end%pal nprocs 16 end 
%tddft 
 sf true 
 nroots 2 Iroot 1 end 
*xyz 0 3 
O   0.48206145953012 1.09082196509513 -0.00257134841441
C   0.60382071611263 -0.2438697140448 -0.00045607359656
C   -0.74952136631062 -0.75436294205381 0.00112495215681
H   1.15111756580592 -0.62047531429563 0.87892476828687
H   1.14955929272611 -0.62328796209096 -0.87960686160252
H   -1.31755789957603 -0.78616366407222 -0.92059552459735
H   -1.31727976828813 -0.7810623685377 0.92318008776715
*
