! EnGrad wB97M-D3BJ def2-TZVPPD 
%pal nprocs 8 end%pal nprocs 16 end 
%tddft 
 sf true 
 nroots 2 Iroot 2 end 
*xyz 0 3 
O   0.43424964728317 1.06548698379228 -0.00288407230467
C   0.61246255796275 -0.26143470704846 -0.00059225610357
C   -0.74622246709195 -0.74170265959939 0.00076146203684
H   1.1623965625154 -0.62580464811253 0.88104369104539
H   1.1622799793634 -0.62893278513108 -0.88097068869237
H   -1.31229923496139 -0.76514013802677 -0.92138725121287
H   -1.31066704507137 -0.76087204587405 0.92402911523125
*
