! EnGrad wB97M-D3BJ def2-TZVPPD 
%pal nprocs 8 end%pal nprocs 16 end 
%tddft 
 sf true 
 nroots 2 Iroot 1 end 
*xyz 0 3 
O   -0.01715285035848 0.77424466539844 -3.685341031e-05
C   0.7406224967346 -0.44909573590361 2.574127435e-05
C   -0.7323150472598 -0.42462222864429 -1.73244585e-05
H   1.26941012358964 -0.65449614047095 0.92054436535346
H   1.26933995747683 -0.65470221481889 -0.92049698842015
H   -1.26387518552642 -0.65482494661473 -0.91623578595602
H   -1.26382949465638 -0.65490339894598 0.91621684561717
*
