! Engrad def2-TZVPPD wB97M-D3BJ 
%pal nprocs 8 end%pal nprocs 64 end 
%tddft 
Iroot 0 Nroots 3 
sf true 
end 
*xyz 0 3 
O   2.5618690004408844 1.1722079359505935 -0.44525917856168873
O   -0.6882600513756848 0.8766280266194375 -2.3539671727268923
O   0.5259580756051984 -2.73368636957222 -1.4737382819816374
O   -2.52252310483902 -1.5493110965694559 0.9731881558207027
N   0.5997636203984685 -2.0819136403650185 0.6764161632723275
N   -1.9429055699206057 0.5598946443489045 1.4065261620711331
N   1.6208215884874069 -0.8214194204436118 -0.9208614967195462
N   -1.6284230412754321 -0.3087447419471077 -0.6871702823278055
C   1.5100863416378716 0.025420491086436545 1.2887378614851086
C   -0.8683160202378953 1.8952473927853806 -0.23335792781322126
C   0.8354833763460574 -1.0959074986776658 1.5928124791350073
C   -1.2814230156880846 1.6788623090429817 1.024650563657309
C   1.8576162484654908 1.0347357981063297 2.283712318490783
C   -0.3358316433543872 3.172394883460214 -0.6764344036725951
C   1.9570712638622958 0.20248311429481153 -0.06706600663407908
C   -1.0344431379020498 0.829714404012546 -1.2008196610448179
C   0.8899069050090456 -1.9405860917417035 -0.6452079720917966
C   -2.0648096747713702 -0.5071065116917294 0.5869177655613507
H   0.577821904954138 -1.3515822586451096 2.6056140126154035
H   -1.2454392094809108 2.4550444818203445 1.7671724042924501
H   1.5206031753845204 2.0155860902965017 1.959668486237652
H   1.421222828092726 0.8460944433144506 3.261030548358696
H   2.924943022514106 1.1453423123137565 2.4514377220591723
H   -0.9651086511932695 3.552340600868502 -1.4778017365245166
H   -0.25261127237730274 3.932636272570802 0.09011323157943152
H   0.6579376486599473 3.053045000406119 -1.1008259622190284
H   -0.02940225985486129 -2.833054199202584 0.8913333563407687
H   -2.2512894072284064 0.4443170354565926 2.3510789844591935
H   1.812525940571918 -0.6681398219931729 -1.89845542912499
H   -1.7102448809308257 -1.0855435859053877 -1.3248447039938813
*
