7
Coordinates from ORCA-job orca E -153.832783606540
  O           0.25939086350514      0.96086401838209     -0.00176634709770
  C           0.64404977822940     -0.32559049635272     -0.00039050738788
  C          -0.73551947866016     -0.66750335970742      0.00040037326880
  H           1.20143388348376     -0.64149468423836      0.88934178620129
  H           1.20189315382600     -0.64300188112358     -0.88923205307078
  H          -1.28514594059196     -0.70233619618206     -0.92661513976643
  H          -1.28390225979219     -0.69933740077794      0.92826188785271
