! Engrad def2-TZVPPD wB97M-D3BJ 
%pal nprocs 8 end%pal nprocs 64 end 
%tddft 
 Iroot 2 Nroots 3 
sf true 
end 
*xyz 0 3 
O   0.14534126 1.10213764 0.59283242
C   0.17268629 -0.30790841 0.39658931
C   0.99913864 -0.67822613 -0.82798408
H   -0.7923173 -0.65231016 0.34206752
H   0.52931309 -0.69620205 1.32035412
H   0.72425984 -1.50227335 -1.41917654
H   1.6929278 0.05501897 -1.24944061
*
