7
Coordinates from ORCA-job orca E -153.931384152157
  O           0.68363815850216      1.33874315644878      0.07315046682259
  C           0.56106469900757      0.19059575333991     -0.25600293455932
  C          -0.44667600681400     -0.80775017051710      0.22451350821349
  H           0.07922771551842     -1.68081063861775      0.61173761296485
  H           1.25871549134318     -0.22583401605307     -1.01206147907270
  H          -1.03685617761264     -1.14372042801718     -0.62885102514054
  H          -1.09691387994470     -0.38962365658359      0.98751385077163
