! Engrad def2-TZVPPD wB97M-D3BJ 
%pal nprocs 8 end%pal nprocs 64 end 
%tddft Nroots 2 Iroot 1 
sf true 
end 
*xyz 0 3 
O   2.51410315 -0.25331928 -1.2225722
O   -0.28651172 2.67095238 -2.06369591
O   0.36027144 -3.70734559 0.61544171
O   -1.97257111 -1.41521406 -1.33144316
N   0.78584821 -2.04088554 1.94536443
N   -1.28311787 -0.3256582 0.5774207
N   1.23651719 -1.9390574 -0.30019304
N   -1.43439114 0.79954759 -1.51001835
C   1.31924574 0.14049389 0.8672382
C   -1.32959277 2.72522132 0.07312604
C   0.84281567 -0.64083908 2.04350069
C   -0.22200487 0.24158235 1.24803442
C   2.12131034 1.43450707 1.08288841
C   -1.41163207 4.18958001 0.22622222
C   1.75995691 -0.63604739 -0.37576022
C   -0.88227885 2.06226522 -1.20944055
C   0.70518373 -2.57189151 0.74573576
C   -1.5753535 -0.41388464 -0.77449033
H   1.01271878 -0.20237316 3.0126091
H   -0.39858223 1.22575234 1.76455258
H   2.08692788 2.1043948 0.29069502
H   1.71300972 1.85523934 1.98162197
H   3.20038647 1.17833532 1.18161863
H   -2.07016386 4.62628566 1.04894813
H   -0.4134045 4.64379345 0.37902149
H   -1.81343756 4.76999266 -0.6071769
H   0.60485446 -2.5918507 2.77730944
H   -1.74813349 -1.14107158 0.96201192
H   1.27939321 -2.58498401 -1.07519681
H   -1.48128977 0.6962 -2.47653763
*
