! Engrad def2-TZVPPD wB97M-D3BJ 
%pal nprocs 8 end%pal nprocs 64 end 
%tddft Nroots 2 Iroot 2 
sf true 
end 
*xyz 0 3 
O   2.21122961 0.31090478 -1.18809542
O   -0.8068693 2.43441125 -2.61181307
O   0.55736117 -3.71187121 0.23570309
O   -2.56468444 -1.14156086 -0.91023204
N   0.81779656 -2.06943087 1.75884544
N   -1.34790388 -0.28271442 0.80068007
N   1.41260847 -1.70498866 -0.4431863
N   -0.94600304 0.39408583 -1.51286856
C   1.27352784 0.25047834 0.98676086
C   -1.27554057 2.46758049 -0.35651986
C   0.91052087 -0.69209015 2.04582738
C   -0.18242797 0.24711141 1.46002743
C   2.14476117 1.4211539 1.37218854
C   -1.36938322 3.74375274 0.36161187
C   1.71419664 -0.31194702 -0.31018326
C   -1.09737745 1.79222278 -1.58270572
C   0.86386521 -2.58891362 0.49622982
C   -1.68075367 -0.38330301 -0.55581647
H   1.20259992 -0.3967817 3.0880495
H   -0.40784628 1.09587248 2.11980855
H   2.17263214 2.17429699 0.58261083
H   1.73329638 1.89764012 2.34520617
H   3.17548737 1.08769383 1.55010975
H   -1.89127777 3.7696328 1.30793587
H   -0.32726074 4.1153375 0.54699001
H   -1.76951356 4.46174163 -0.33274333
H   0.4891766 -2.71095725 2.46885866
H   -1.70048122 -1.12404423 1.24758897
H   1.64115741 -2.07552055 -1.35871758
H   -1.09101585 -0.03708864 -2.38306491
*
