! Engrad def2-TZVPPD wB97M-D3BJ 
%pal nprocs 8 end%pal nprocs 64 end 
%tddft 
 Iroot 1 Nroots 3 
sf true 
end 
*xyz 0 3 
O   2.97218004 -0.91546764 -1.66584245
O   -1.69866961 1.280512 -2.16040654
O   -1.03385301 -2.6228928 -0.74832353
O   -2.96838244 -0.09940906 1.94801876
N   0.00482339 -1.5287305 0.94291647
N   -1.11900443 0.99108828 1.66947257
N   0.83307049 -1.38709642 -1.23959908
N   -2.352143 0.5617015 -0.19065911
C   2.15706509 -0.40707003 0.4677696
C   -0.0734069 1.44835043 -0.35477445
C   0.87549052 -0.40122019 1.24911488
C   0.14467164 0.91163001 1.02312971
C   3.26206291 0.46354228 0.97842559
C   0.85493521 2.39448313 -1.01647469
C   2.10326458 -0.93043622 -0.87300252
C   -1.33662176 1.11213297 -1.00551969
C   -0.14329214 -1.9268636 -0.36612078
C   -2.26947511 0.39066114 1.14428304
H   1.15912803 -0.45976605 2.32628682
H   0.7406911 1.66593794 1.43638238
H   2.83735983 1.48492609 1.02925163
H   3.74283434 0.0213969 1.84156997
H   4.04330455 0.53780817 0.2577949
H   0.45293757 3.3943464 -1.0346479
H   1.78181967 2.3389272 -0.50024935
H   1.0821816 2.218461 -2.05000322
H   -0.75255705 -1.68782867 1.56807677
H   -1.10020406 0.58764868 2.59663248
H   0.82960682 -1.77710114 -2.23699561
H   -3.09488758 0.14768826 -0.76123863
*
