! Engrad def2-TZVPPD wB97M-D3BJ 
%pal nprocs 8 end%pal nprocs 32 end 
 %tddft nroots 2 Iroot 1 
sf true 
end 
*xyz 0 3 
O   3.17106891043803 -1.55434313406195 2.55088709091774
O   -1.63108341601261 0.65817925257593 -2.60114873135875
O   1.59272955791558 -1.953473819106 -1.71628223892436
O   -3.50744883059592 -0.98169912046384 1.16674997059202
N   1.52948505069362 -0.12435997259419 -0.256312059405
N   -1.79876725746562 0.5064171023526 1.40209026048162
N   2.51910131523387 -2.07651003336432 0.39423252384739
N   -2.40755761249535 -0.27307935927846 -0.69540809895973
C   1.93865236910503 0.00871651441574 1.14270009639751
C   -0.82131736779052 1.59058849778129 -0.54260347370093
C   0.48924532399615 -0.14593856904291 0.79054634817338
C   -0.55298619521856 0.98830765298964 0.83977068012541
C   2.54059015327818 1.29109891395219 1.62950895207152
C   -1.5754863117644 2.91759207370945 -0.44826082522104
C   2.62098042303946 -1.27972358399471 1.51996593810148
C   -1.62268925091216 0.63011609685128 -1.39730061097709
C   1.85622162417044 -1.45981610969981 -0.66370124824216
C   -2.63412582706008 -0.30120166360081 0.68007368846157
H   0.05810509126998 -1.12116812152121 0.98676311578561
H   -0.1889311305343 1.77997940141945 1.49119484918909
H   2.0199282944878 2.14547823031549 1.20636594617861
H   2.48733868595292 1.33727694917933 2.71469003793569
H   3.58647663832031 1.35049079882073 1.33735172097431
H   -2.51836385152639 2.79629979147749 0.08131552772248
H   -0.97574262407267 3.65262988837019 0.08580159754915
H   -1.78212965469994 3.29969932378182 -1.44409242726011
H   0.12306512502011 1.73387422911244 -1.05697821825688
H   -1.88366008706783 0.39213174071555 2.39654053178823
H   2.83644643636774 -3.0298258425273 0.35089425074782
H   -3.01654558207294 -0.86273712856523 -1.2407551947346
*
