! Engrad def2-TZVPPD wB97M-D3BJ 
%pal nprocs 8 end%pal nprocs 64 end 
%tddft 
Iroot 3 Nroots 3 
sf true 
end 
*xyz 0 3 
O   2.9860351807525314 0.739821986317642 -0.7599884615106169
O   -0.3623374964898168 1.1455397992492704 -2.2885225515356353
O   0.4921516996973704 -3.0161201434855984 -0.8025196521457569
O   -3.1747961177713147 -1.4637377052691005 0.025368867552138397
N   0.3135367213422309 -1.6529182289490034 0.9676441397232656
N   -2.101828791317543 0.12058361335026235 1.1736175630669001
N   1.658228506232072 -1.0792810810942368 -0.8026559218205039
N   -1.5942467631252482 -0.2752467603860326 -1.0489165530438453
C   1.4299228679949036 0.5036004541179885 0.9500738360010941
C   -0.5101578463252658 1.5442081087827428 0.034678353926124145
C   0.446422988503048 -0.385763404580046 1.5854779521662177
C   -0.9159416058882208 0.8527451737063381 1.2879212578464523
C   2.068507021582218 1.5251173446662036 1.7712901903226943
C   -0.42618246236471613 2.9914033615726674 -0.02791075827530904
C   2.1104016365271945 0.08756580566088225 -0.2577957105768212
C   -0.7860699913873093 0.8248727678752998 -1.2087591414855199
C   0.7891975112100953 -1.9888523003592546 -0.2529109143356969
C   -2.342964722144772 -0.602922857753544 0.06017027702069258
H   0.5901835625355686 -0.514063478039274 2.6550559531854705
H   -1.0075672221154204 1.5517161969291728 2.1111417024909658
H   2.432172679755481 2.337557530194431 1.1508221410812693
H   1.4235816085994182 1.9483659195799963 2.536391207989786
H   2.9349890436982977 1.1529323893056844 2.3155298271671145
H   -1.438001217048171 3.391122627705005 -0.11923091313852704
H   0.04062249823368154 3.4734491458698082 0.8220254846040859
H   0.11674032520158423 3.310974127489547 -0.9114963308860831
H   -0.360340826271062 -2.3057324756098714 1.3229155491026567
H   -2.616932383102615 -0.15257256365974844 1.9882032380684824
H   2.051841507216046 -1.3484265390369676 -1.6890449211170588
H   -1.794567913730254 -0.800938814150333 -1.8839757114440192
*
