! Engrad def2-TZVPPD wB97M-D3BJ 
%pal nprocs 8 end%pal nprocs 64 end 
%tddft Nroots 2 Iroot 1 
sf true 
end 
*xyz 0 3 
O   3.11971429 0.59655379 -0.87174171
O   -0.73767734 1.61634944 -2.21048274
O   0.18936313 -2.92030031 -0.79137606
O   -3.00465886 -1.70008488 -0.49178678
N   0.28795574 -1.58082772 1.05814287
N   -2.06289736 -0.20596375 1.0196949
N   1.83324706 -1.28499366 -0.64139062
N   -1.47281038 -0.22352621 -1.20793226
C   1.71888894 0.39399286 1.02807093
C   -0.81523964 1.58042659 0.12324709
C   0.43043523 -0.19740788 1.51792277
C   -0.88489976 0.58731688 1.23456944
C   2.20029453 1.59870357 1.63915314
C   -0.70913042 3.09130025 0.32861666
C   2.35268166 -0.08190572 -0.16678589
C   -0.97713419 1.05071193 -1.18632051
C   0.72464463 -2.038712 -0.14549038
C   -2.21974145 -0.82636434 -0.18015393
H   0.48272309 -0.30776367 2.60677378
H   -1.0191401 1.13286402 2.16798388
H   3.22876549 1.8309926 1.45681116
H   1.62886596 2.36426727 1.19891563
H   1.96058362 1.48129177 2.75566273
H   -1.69584934 3.26056471 0.73331175
H   -0.0791155 3.24379907 1.19154532
H   -0.39415974 3.58946875 -0.52439422
H   -0.58845103 -2.02799623 1.16926314
H   -2.57969346 -0.57206202 1.79360934
H   2.01930401 -1.49671476 -1.62026192
H   -1.51088097 -0.60658936 -2.11504948
*
