! Engrad wB97M-D3BJ def2-TZVPPD 
%pal nprocs 8 end%pal nprocs 16 end 
%tddft nroots 2 Iroot 2
 sf true 
end 
*xyz 0 3 
O   0.89168756069482 1.01262791574738 0.00011968156309
C   0.78191453490484 -0.32321474207383 -0.00013151668085
C   -0.63811012377694 -0.60091121637882 3.315370361e-05
H   1.25667012128189 -0.78944147073652 0.87867960570654
H   1.25667772743952 -0.78892347577534 -0.87916508407119
H   -1.20374565924993 -0.53556540285494 -0.9215350557237
H   -1.20290392941524 -0.5337455508537 0.9219992155025
*
