! Engrad wB97M-D3BJ def2-TZVPPD 
%pal nprocs 8 end%pal nprocs 16 end 
%tddft nroots 2 Iroot 2
 sf true 
end 
*xyz 0 3 
O   1.68980018673932 0.92651620460589 0.03453870748625
C   0.97269106430694 -0.01975908023354 0.20126745722167
C   -0.30213799702798 -0.6701195482967 -0.25155575370317
H   1.35569976754475 -0.72332365775621 0.98961403560017
H   -0.02717912989727 -1.66968703786582 -0.58468277648387
H   -0.86198448240563 -0.15544329864305 -1.03043245517306
H   -0.91552391352969 -0.78171977827174 0.64125078505201
*
