! Engrad def2-TZVPPD wB97M-D3BJ 
%pal nprocs 8 end%pal nprocs 64 end 
 %tddft nroots 2 Iroot 1 
sf true 
end 
*xyz 0 3 
O   3.65855124204126 0.57032315990593 -0.11754079812611
O   -1.11852448866609 1.03858650598035 -2.50213596917233
O   0.86692878326938 -2.82031846974015 -1.25161657744812
O   -3.57079128717477 -1.19671943882355 0.54813933426323
N   0.26736936412485 -1.49703341883368 0.48446452427036
N   -1.99524257404084 0.25158115874247 1.32966295391614
N   2.25710448730905 -1.12677290495897 -0.6568670894422
N   -2.11684416459359 -0.28251164046261 -0.94130996037596
C   1.66467980306029 0.3874934726407 1.12404578416028
C   -0.6707358667006 1.46930494707095 -0.21218684349313
C   0.40964770545783 -0.35618906324895 1.34896452398127
C   -0.61530864081278 0.73046052791686 1.14131609031302
C   2.06572533245635 1.48499224386058 2.02573624200833
C   -0.57543177448704 2.93759681988131 -0.24861085471204
C   2.61314510711426 -0.01795863334223 0.08816884839976
C   -1.26991474364211 0.7475455110507 -1.33563338254235
C   1.09938159331155 -1.88039116506438 -0.52615441008178
C   -2.62912980680738 -0.46493797489558 0.34234808334176
H   0.34801280023283 -0.6913632658588 2.39450865024934
H   -0.44692879651178 1.48456687971427 1.90610220043407
H   3.14956087961938 1.55672854445507 2.05874426088137
H   1.7085491165541 2.45756355403759 1.66063642734899
H   1.66117476126688 1.34886147965148 3.02862860692614
H   -1.41360758315912 3.39182777098651 0.29450390744295
H   0.33455512192696 3.28679172090591 0.24965364104192
H   -0.59529426337514 3.29591459283581 -1.27336437333907
H   -0.54769824133071 -2.07658829611626 0.57779992121959
H   -2.3650985357252 0.06806496635828 2.24741294344118
H   2.87000481781174 -1.3921881311301 -1.40980869935725
H   -2.59124014852961 -0.79023145351956 -1.67100798554939
*
