! Engrad def2-TZVPPD wB97M-D3BJ 
%pal nprocs 8 end%pal nprocs 64 end 
%tddft Nroots 2 Iroot 1 
sf true 
end 
*xyz 0 3 
O   2.33771827 1.14112592 -0.55915765
O   -1.10696487 1.18863376 -2.24371061
O   1.45472005 -3.06357697 -1.85377175
O   -2.59883043 -1.28831695 1.30812854
N   0.89608061 -2.49739593 0.27888443
N   -1.91168685 0.84666631 1.72874374
N   2.17183939 -1.07754413 -0.96372661
N   -1.78557565 -0.02045413 -0.5112095
C   1.33789131 -0.19628192 1.16066342
C   -1.07812953 2.22850828 -0.06565557
C   0.73579075 -1.49360174 1.25126887
C   -1.47335886 2.08028505 1.30116551
C   1.31302343 0.72519738 2.28908082
C   -0.54983591 3.46435162 -0.54179732
C   2.0002304 0.04791425 -0.1791939
C   -1.25464843 1.17213347 -1.02981706
C   1.48745046 -2.26226266 -0.94006328
C   -2.11486865 -0.2541953 0.84087425
H   0.0277552 -1.74529808 1.96483848
H   -1.50182593 2.78883204 2.07104761
H   1.2614452 0.03199115 3.23430648
H   2.22736696 1.35100936 2.4182552
H   0.40947338 1.38238197 2.31579676
H   -1.31373993 4.05224914 -1.1253552
H   -0.40572861 4.01953481 0.37063345
H   0.34614054 3.43101043 -1.12828755
H   0.41300886 -3.38037846 0.34653953
H   -2.28295734 0.69247308 2.64395059
H   2.62497719 -0.93950432 -1.84008628
H   -1.55794838 -0.84486661 -1.0504596
*
