! EnGrad wB97M-D3BJ def2-TZVPPD 
%pal nprocs 8 end%pal nprocs 16 end 
%tddft 
 sf true 
 nroots 2 Iroot 2 end 
*xyz 0 3 
O   0.71919416720855 1.36374765129728 -0.01279424463019
C   0.52710424946092 0.21288890849235 0.26552858702325
C   -0.43652191054224 -0.80978948741232 -0.2507356466475
H   1.16799981043401 -0.23052013221937 1.06091743846701
H   0.1409616801607 -1.65547223136946 -0.62440113843099
H   -1.09058600259246 -0.42815569514733 -1.03042248712349
H   -1.02595199412948 -1.17109901364114 0.59190749134191
*
