! Engrad wB97M-D3BJ def2-TZVPPD 
%pal nprocs 8 end%pal nprocs 16 end 
%tddft nroots 2 Iroot 1
 sf true 
end 
*xyz 0 3 
O   1.74273371973725 0.89401049006514 0.0455539352539
C   0.98245231168982 -0.023277286092 0.18300422368081
C   -0.30324555046674 -0.67005471519011 -0.25101716720178
H   1.34175715612093 -0.74586932252351 0.96984087836308
H   -0.03000541027342 -1.67293152344376 -0.57448990925292
H   -0.87962407032964 -0.16881069231585 -1.02731950698705
H   -0.89934586095462 -0.76940957967001 0.65442754614396
*
