30
Coordinates from ORCA-job orca E -908.932482521818
  O           2.82413898388048      1.08447943079070     -0.70916641288111
  O          -0.40353796735317      0.81207410207913     -2.04061224892451
  O           0.64618112188969     -2.81982811668555     -1.49892349800020
  O          -2.66208015182569     -1.71356945068675      0.98061397993013
  N           0.69839329340552     -2.01740963688127      0.63008300227041
  N          -2.41878881158307      0.51701432348241      1.37658187586561
  N           1.85967675198255     -0.94073954769263     -1.04439560279689
  N          -1.62449486107949     -0.40523131465355     -0.57444743877293
  C           1.66334310043003      0.10939417989924      1.11250974475522
  C          -1.02643055656234      1.86298401828489     -0.00554232826146
  C           0.96376216534415     -0.97104504618591      1.48201609080241
  C          -1.80500355026834      1.71516171731501      1.07019102837477
  C           1.96772217379314      1.25230718924767      2.02606031192720
  C          -0.29916912439857      3.12044349012907     -0.35882982495559
  C           2.17737165234943      0.16495126596753     -0.25705237317431
  C          -0.96791752444866      0.76158343026977     -0.97066986547786
  C           1.04051433314178     -1.99375515800785     -0.70543626901669
  C          -2.26697453006739     -0.62420212114251      0.62167390513773
  H           0.56028641254155     -1.08070561033746      2.47762070145765
  H          -1.95486439875937      2.50631937101129      1.78895908986192
  H           1.55401098150161      2.17945124701233      1.63430996955818
  H           1.55442820630198      1.07489803429820      3.01648684875707
  H           3.04242143026958      1.39869834344765      2.11416939258724
  H          -0.67975188352899      3.53575496656065     -1.29006113188366
  H          -0.40214309518740      3.86345828807604      0.42877866020001
  H           0.75796044852277      2.91255829627419     -0.51718815265398
  H           0.02834482363937     -2.72249586838149      0.88692709285259
  H          -2.91431456163944      0.39717331095823      2.24121220453139
  H           2.07328368878965     -0.85927967356884     -2.02645592025227
  H          -1.53376855108136     -1.20544346088025     -1.18481283181806
