! Engrad def2-TZVPPD wB97M-D3BJ 
%pal nprocs 8 end%pal nprocs 64 end 
%tddft 
 Iroot 1 Nroots 3 
sf true 
end 
*xyz 0 3 
O   3.16261873 -1.44338254 -1.85325447
O   -2.30530505 1.33386598 -1.65097243
O   -1.20421655 -2.29945447 -1.07044727
O   -2.63757371 0.93055657 2.88278362
N   0.08897848 -1.46709762 0.60609021
N   -0.63042269 1.02929231 2.01887798
N   0.86035032 -1.6446096 -1.58378633
N   -2.51163817 0.99628996 0.58022189
C   2.19888481 -0.57130373 -0.01291318
C   -0.34700699 1.17914678 -0.36926322
C   1.0500467 -0.40490667 0.95672553
C   0.34092415 1.01508529 0.9368828
C   3.4898493 -0.01289408 0.36140429
C   0.44520839 1.64284086 -1.53877661
C   2.12334189 -1.301441 -1.20577244
C   -1.7914529 1.14118887 -0.58830644
C   -0.17781562 -1.82444548 -0.65915806
C   -1.96738353 0.93025351 1.87574223
H   1.53946909 -0.63345694 1.89205916
H   1.16350345 1.75686096 1.01299689
H   3.81633385 -0.55263047 1.28642932
H   4.29450476 -0.07987738 -0.33659317
H   3.48919061 1.0683333 0.59591066
H   -0.02022903 2.61153304 -1.82850358
H   1.52602224 1.72048756 -1.4430092
H   0.2624873 1.10838421 -2.54292692
H   -0.83812465 -1.39241719 0.90852632
H   -0.41325607 0.99225353 2.97956936
H   0.73422598 -2.12644255 -2.47880715
H   -3.53041466 0.84943089 0.45591302
*
