7
Coordinates from ORCA-job orca E -153.885670485741
  O           0.08703698023762      0.82119148164923     -0.00004900663452
  C           0.72545925786061     -0.41335718904236      0.00007386647772
  C          -0.71014753615707     -0.46151098505285     -0.00010047772158
  H           1.26312971663317     -0.66570195551132      0.90947203131602
  H           1.26300139964005     -0.66599183092023     -0.90934859935627
  H          -1.24561678596121     -0.62973397057627     -0.92197354424539
  H          -1.24540305615724     -0.62971940529628      0.92192573016402
