! Engrad def2-TZVPPD wB97M-D3BJ 
%pal nprocs 8 end%pal nprocs 64 end 
%tddft 
 Iroot 1 Nroots 3 
sf true 
end 
*xyz 0 3 
O   3.14163265 0.14941112 -1.74113404
O   -2.10680737 0.54461897 -1.89110167
O   -0.59422669 -2.36906013 -1.32522714
O   -2.93475808 -0.37131546 2.50155252
N   0.30821134 -1.53476542 0.56588066
N   -1.06982285 0.66053506 1.93902728
N   1.32528428 -1.18115624 -1.47756314
N   -2.45443512 -0.10962871 0.2945304
C   2.16391645 0.05555733 0.36964492
C   -0.43616994 1.20493845 -0.33692793
C   0.99515921 -0.37744158 1.10256668
C   0.02285214 0.92095519 1.04981167
C   3.03624576 1.08956348 1.00318901
C   0.21105022 2.08619012 -1.35155091
C   2.22278011 -0.17000779 -1.04184795
C   -1.70071964 0.4981945 -0.73401188
C   0.25963736 -1.75537868 -0.76970787
C   -2.2196024 0.01801131 1.63498458
H   1.24627028 -0.54759848 2.13747087
H   0.7297459 1.71139234 1.48776154
H   2.7987793 1.2772107 2.09002867
H   4.10814496 0.71072291 0.9625481
H   3.04871196 2.00207148 0.47420454
H   -0.44930321 2.9625913 -1.63635469
H   1.20363582 2.42137637 -0.93485782
H   0.46635041 1.65586894 -2.29591183
H   -0.56905646 -1.70630869 1.0863726
H   -0.89444256 0.79047148 2.89560218
H   1.39858868 -1.51524272 -2.40694664
H   -3.19846854 -0.7025605 -0.0314324
*
