7
Coordinates from ORCA-job orca E -153.931680024706
  O           1.36622190244439      1.06012830032971     -0.07110629060736
  C           0.92747069056499     -0.00320994666508      0.27408685748675
  C          -0.31069340461712     -0.67782299512273     -0.23224803710129
  H           1.46653134220287     -0.58353475712960      1.05029573164787
  H          -0.04013066418741     -1.65230443958195     -0.64003915268062
  H          -0.80938993833514     -0.07914776158165     -0.98871230679236
  H          -0.98200980346162     -0.85946288496768      0.60772319804701
