! Engrad def2-TZVPPD wB97M-D3BJ 
%pal nprocs 8 end%pal nprocs 64 end 
%tddft Nroots 2 Iroot 2 
sf true 
end 
*xyz 0 3 
O   2.87650763 1.33007983 0.06978899
O   -0.77020784 0.32777298 -2.26850222
O   1.64043179 -2.75463524 -1.55623223
O   -3.32785879 -1.12873282 1.17753669
N   0.65133591 -1.92697906 0.35151922
N   -2.08208654 0.7259793 1.49438367
N   2.11953407 -0.61739125 -0.91119059
N   -2.33030062 -0.12668627 -0.66840757
C   1.57137791 -0.03428196 1.39061547
C   -0.84816318 1.69967824 -0.3132995
C   0.67705162 -1.13020419 1.41288184
C   -1.15245875 1.70143789 1.01589882
C   1.6275447 0.91004542 2.46380801
C   0.13969112 2.64641201 -0.90568248
C   2.25885773 0.26457596 0.17398968
C   -1.21667306 0.63191543 -1.17222158
C   1.48815206 -1.88751661 -0.75334421
C   -2.54175769 -0.31578052 0.71698089
H   -0.06746265 -1.37205003 2.18049943
H   -0.87557229 2.44482529 1.74152661
H   1.79852776 1.98884358 2.11325065
H   0.64670394 0.90068204 3.06113267
H   2.48147476 0.68696584 3.10189598
H   0.6102913 2.15298854 -1.74952473
H   -0.32426031 3.62835271 -1.17260103
H   0.89832673 2.81645546 -0.17071948
H   0.21379272 -2.87233968 0.35747946
H   -2.35502079 0.81924835 2.45699801
H   2.50533996 -0.29966714 -1.75195744
H   -2.7890605 -0.80859202 -1.24182324
*
