7
Coordinates from ORCA-job orca E -153.876534652261
  O          -0.07750600652458      0.75559698812130     -0.00004125397772
  C           0.78088379378008     -0.50130468291320     -0.00000149690402
  C          -0.74183729389539     -0.37450498235993      0.00000699623163
  H           1.29396651045885     -0.65101246397276      0.93450435390246
  H           1.29398863267388     -0.65105828069440     -0.93448527950738
  H          -1.27362666365739     -0.64810782388982     -0.91124713999066
  H          -1.27366897283543     -0.64800875429119      0.91126382024568
