7
Coordinates from ORCA-job orca E -153.931927328454
  O           0.66832906522859      1.31707523746627     -0.13735563087875
  C           0.56995292846819      0.18617082143893      0.25645804153143
  C          -0.44814006277602     -0.81119250565363     -0.20869832502974
  H           1.27339341748064     -0.19158959108245      1.02425600026041
  H           0.06698588408905     -1.66108146460157     -0.65858548266829
  H          -1.12900673888719     -0.36555695093096     -0.92749359410365
  H          -0.99931449360326     -1.19222554663657      0.65141899088860
