! Engrad wB97M-D3BJ def2-TZVPPD 
%pal nprocs 8 end%pal nprocs 16 end 
%tddft nroots 2 Iroot 1
 sf true 
end 
*xyz 0 3 
O   0.06360989212729 0.81062802957299 -4.812986939e-05
C   0.72680097431536 -0.41964347017847 6.2856758e-05
C   -0.71488250055864 -0.45432903922845 -7.957221077e-05
H   1.26323638044955 -0.66282152513654 0.91154314160057
H   1.26311261073609 -0.66313440286579 -0.91143065467447
H   -1.24941467601732 -0.63615352940733 -0.92082017837772
H   -1.24923592472663 -0.63623585195596 0.92077253677377
*
