! Engrad def2-TZVPPD wB97M-D3BJ 
%pal nprocs 8 end%pal nprocs 64 end 
%tddft Nroots 2 Iroot 1 
sf true 
end 
*xyz 0 3 
O   2.86110225 1.06651371 -0.72001426
O   -0.41788416 0.84067338 -2.05052182
O   0.52852872 -2.75661538 -1.47566495
O   -2.61018857 -1.74776603 0.96514675
N   0.71545271 -2.00450919 0.66328451
N   -2.46966436 0.49546058 1.33841706
N   1.82697606 -0.93268606 -1.04537649
N   -1.61336403 -0.41145365 -0.592223
C   1.7757555 0.08992483 1.13354032
C   -1.11305002 1.88458982 -0.03256168
C   1.04021084 -0.99275397 1.53078734
C   -1.89667655 1.71092406 1.03748273
C   2.1324046 1.20698419 2.04988146
C   -0.41890855 3.16180873 -0.37813112
C   2.21222761 0.15385171 -0.2447157
C   -0.99776487 0.77507392 -0.9885155
C   0.99080702 -1.96187073 -0.68579857
C   -2.25891267 -0.64994791 0.59778063
H   0.69055008 -1.1020915 2.53256449
H   -2.07776359 2.49630748 1.75284338
H   1.70946867 2.1429237 1.68662388
H   1.77446653 1.02869836 3.05773204
H   3.21257128 1.33494972 2.08974357
H   -0.77571633 3.55417565 -1.32500185
H   -0.57038264 3.90576412 0.39490307
H   0.65186104 2.98746615 -0.48979341
H   0.02634541 -2.6876075 0.94142238
H   -2.96383858 0.35191829 2.20414663
H   1.98625574 -0.83284133 -2.0294892
H   -1.47391824 -1.21549966 -1.18746446
*
