! Engrad def2-TZVPPD wB97M-D3BJ 
%pal nprocs 8 end%pal nprocs 64 end 
%tddft Nroots 2 Iroot 1 
sf true 
end 
*xyz 0 3 
O   3.52403896 0.34147612 -0.4324527
O   -1.28377963 1.99871311 -2.22533645
O   0.78054304 -3.21894921 -0.71709086
O   -3.2789458 -1.56007091 -0.52656328
N   0.11923815 -1.44851626 0.55668017
N   -2.16553517 -0.2528948 0.98173494
N   2.10300065 -1.35763333 -0.59392657
N   -2.10891652 0.15803352 -1.35085106
C   1.73188153 0.33655566 1.09330466
C   -0.78658653 1.59831729 0.03288109
C   0.36423559 -0.25533532 1.37096019
C   -0.98928586 0.73898357 1.20767746
C   2.47602477 1.12740289 2.21679441
C   -0.13037441 2.95571201 0.25265179
C   2.48506434 -0.18681251 -0.04811698
C   -1.39263617 1.30201172 -1.25235428
C   1.00166871 -2.07458628 -0.24743469
C   -2.54820263 -0.60330292 -0.30670988
H   0.43046652 -0.58976276 2.37118481
H   -1.04708654 1.22867699 2.12288294
H   2.91679219 2.05483969 1.8021223
H   1.79960587 1.43254049 2.92907487
H   3.26806167 0.41636008 2.44034791
H   -0.827907 3.69636709 -0.32726214
H   0.16099377 3.26832688 1.24616674
H   0.76242991 2.92973148 -0.44310484
H   -0.59679767 -2.04800749 0.88357726
H   -2.70472305 -0.52852211 1.76726787
H   2.73951291 -1.87278292 -1.22483394
H   -2.55314396 0.04260632 -2.23694115
*
