! Engrad def2-TZVPPD wB97M-D3BJ 
%pal nprocs 8 end%pal nprocs 64 end 
%tddft Nroots 2 Iroot 2 
sf true 
end 
*xyz 0 3 
O   4.0609157 0.1387632 0.34553933
O   -1.718528 1.52178979 -2.38266867
O   1.14271283 -3.01470247 -1.08419834
O   -3.6305127 -1.34867042 0.50743618
N   0.29690968 -1.27111897 0.09453102
N   -1.98284286 -0.00920739 1.31312067
N   2.58823495 -1.4871678 -0.24379868
N   -2.41681924 -0.11140651 -0.96906636
C   1.8194386 0.40264153 1.01975752
C   -0.91964943 1.57239735 -0.15721215
C   0.46589133 -0.26988945 1.12789549
C   -0.73199811 0.7035064 1.09872008
C   2.09931934 1.65862388 1.72456355
C   -0.6380551 3.00805751 -0.09825403
C   2.91756862 -0.2866449 0.36181631
C   -1.67770093 1.02382654 -1.27369367
C   1.31725129 -2.00179213 -0.44801042
C   -2.74258002 -0.54848478 0.30805726
H   0.43957167 -0.75972143 2.11863653
H   -0.60346574 1.39275115 1.93404847
H   3.17496172 1.75187372 1.90683219
H   1.8147468 2.51998565 1.12858337
H   1.54073679 1.73343357 2.65032183
H   -1.21148806 3.47041917 0.71492943
H   0.40479415 3.20287326 0.1445622
H   -0.88373153 3.49170886 -1.03407897
H   -0.5731104 -1.77066806 0.07085786
H   -2.21729885 -0.35480588 2.22818439
H   3.33090852 -1.9842145 -0.71521298
H   -3.0025447 -0.47738586 -1.7026493
*
