! Engrad def2-TZVPPD wB97M-D3BJ 
%pal nprocs 8 end%pal nprocs 64 end 
%tddft Nroots 2 Iroot 2 
sf true 
end 
*xyz 0 3 
O   4.03866623 0.26108521 0.57813822
O   -2.26896307 1.94856455 -2.04736325
O   1.37013663 -3.01621417 -1.01150129
O   -3.65189063 -1.48162389 0.45439794
N   0.36589214 -1.3632051 0.14489876
N   -1.91520405 -0.2903518 1.28502346
N   2.58961027 -1.14404892 -0.51033909
N   -2.72947075 0.13211056 -0.9250642
C   1.77448531 0.28909376 1.2591627
C   -0.90833683 1.46813615 -0.12578164
C   0.43988038 -0.32927379 1.15698965
C   -0.78307636 0.61248129 1.07728314
C   2.04435771 1.20903138 2.43651779
C   -0.0672169 2.68638221 -0.40956229
C   2.8560783 -0.09047906 0.40599409
C   -1.9652674 1.22218036 -1.04971666
C   1.41218512 -1.90632894 -0.46883207
C   -2.8096103 -0.57542445 0.31943044
H   0.33728269 -0.62041148 2.21456436
H   -0.58115467 1.28866397 1.96470367
H   3.09046107 1.47948118 2.50025392
H   1.35842365 2.1043704 2.45275732
H   1.78713912 0.63077771 3.34178112
H   -0.07072831 3.24579545 0.47403551
H   0.89830304 2.27965228 -0.68833474
H   -0.43834902 3.25538407 -1.29364152
H   -0.30425077 -2.07548468 0.40851422
H   -2.24962415 -0.49997888 2.22881313
H   3.48377192 -1.58191271 -0.64221568
H   -3.47933402 0.10455783 -1.6067699
*
