! Engrad def2-TZVPPD wB97M-D3BJ 
%pal nprocs 8 end%pal nprocs 64 end 
%tddft 
 Iroot 1 Nroots 3 
sf true 
end 
*xyz 0 3 
O   2.97432521 -0.82935903 -2.09738513
O   -2.26475355 1.23164259 -1.66611632
O   -1.2413433 -2.33460756 -1.18728185
O   -2.76334119 0.73253994 2.79077352
N   0.20913549 -1.75954851 0.5240836
N   -0.59984062 0.99241657 2.05915577
N   0.87126095 -1.49494362 -1.63474424
N   -2.4615823 0.92016034 0.59041657
C   2.27398775 -0.6338299 0.17488005
C   -0.31127203 1.29132476 -0.26321483
C   1.03736284 -0.63345247 0.96877395
C   0.34645799 0.84860072 1.01518961
C   3.49100939 0.05059415 0.67845813
C   0.45994039 1.7478101 -1.47229031
C   2.08641671 -1.00254291 -1.25527772
C   -1.74588167 1.12087521 -0.60754205
C   -0.16579049 -1.88386948 -0.81573694
C   -1.96779359 0.86377743 1.91711532
H   1.3159074 -0.89507583 2.02029622
H   1.29989322 1.4183655 1.24206379
H   3.55186256 1.03929474 0.37262516
H   3.4923006 0.05755449 1.73799335
H   4.45269032 -0.41130997 0.35555028
H   0.20883951 1.23667431 -2.3622016
H   0.15491599 2.78187831 -1.53310097
H   1.57582719 1.58637969 -1.30438818
H   -0.59651274 -2.03239864 1.09776628
H   -0.3193705 0.95824956 2.9892981
H   0.74698784 -1.52177043 -2.65316848
H   -3.46088823 0.89100925 0.47139866
*
