! Engrad def2-TZVPPD wB97M-D3BJ 
%pal nprocs 8 end%pal nprocs 64 end 
%tddft 
 Iroot 1 Nroots 3 
sf true 
end 
*xyz 0 3 
O   1.44335067 0.20503105 0.67719833
C   0.51407494 -0.13748534 -0.39652829
C   -0.88681803 0.1487046 -0.09323914
H   0.66255353 -1.26029064 -0.57534604
H   0.8603989 0.29240682 -1.36517423
H   -1.60136028 0.51500839 -0.78868071
H   -1.22441661 -0.30683595 0.86668285
*
