! Engrad def2-TZVPPD wB97M-D3BJ 
%pal nprocs 8 end%pal nprocs 64 end 
%tddft 
 Iroot 1 Nroots 3 
sf true 
end 
*xyz 0 3 
O   3.38970657 0.87717523 -0.14164703
O   -0.77401827 0.69051952 -2.62789143
O   0.5475401 -2.52736778 -0.91161909
O   -3.2782861 -1.83183782 0.31169762
N   0.45435374 -1.33459747 0.95013507
N   -2.12969632 -0.08433999 1.08454853
N   1.85227268 -0.61297202 -0.79338409
N   -2.11939436 -0.57647884 -1.1946996
C   1.60532991 0.68823908 1.34448787
C   -0.84062598 1.25710807 -0.396577
C   0.31605737 -0.07354759 1.53861933
C   -1.00049096 0.74241664 1.00290308
C   2.26391039 1.56894742 2.2556197
C   0.01800534 2.40962963 -0.76666269
C   2.34522216 0.3161425 0.11386535
C   -1.24792641 0.49482234 -1.5013764
C   0.94357574 -1.5262903 -0.38435584
C   -2.54341679 -0.92617714 0.0624852
H   0.16247243 -0.16897063 2.59913736
H   -1.20504126 1.71627661 1.58917747
H   1.58715363 2.0061829 2.95903747
H   3.16445966 1.14841479 2.71919611
H   2.60695245 2.40085493 1.6996463
H   -0.43458046 3.0612544 -1.43868932
H   0.12501676 3.06866118 0.19360097
H   0.97337668 2.27101489 -1.3189851
H   -0.33336596 -1.93269067 1.19177247
H   -2.3382496 -0.59053558 1.92470455
H   2.45893106 -0.92840276 -1.6222306
H   -2.26799366 -1.23005519 -1.90743407
*
