! Engrad def2-TZVPPD wB97M-D3BJ 
%pal nprocs 8 end%pal nprocs 64 end 
%tddft 
 Iroot 2 Nroots 3 
sf true 
end 
*xyz 0 3 
O   3.62287782 -0.81627578 -0.53748303
O   -1.33236148 1.23925272 -2.63722299
O   -0.42634751 -2.79087662 -0.59396634
O   -3.45023022 -0.76231944 0.84112844
N   -0.02825343 -1.34231646 1.04959338
N   -1.84410924 0.85521314 1.2021201
N   1.51221932 -1.61032116 -0.65370446
N   -2.14456615 -0.01753013 -0.92006861
C   1.95748497 0.11640665 0.93971789
C   -0.26118473 1.53728727 -0.55036107
C   0.50783374 -0.01331901 1.39758937
C   -0.37478328 1.12965049 0.89503819
C   2.86114026 1.16789619 1.52658735
C   0.59678813 2.57744985 -0.98142299
C   2.46998721 -0.79739152 -0.09620491
C   -1.30845052 1.00997282 -1.44795835
C   0.31460315 -1.98489866 -0.09202934
C   -2.56476795 0.00481865 0.44009887
H   0.57287445 0.02696301 2.52011645
H   -0.1602773 2.03990643 1.46198815
H   3.84036344 1.25769136 1.10480806
H   2.35027244 2.12731182 1.41903793
H   2.86981127 0.85223601 2.5658944
H   0.568029 2.69931385 -2.08102281
H   0.32029251 3.53021712 -0.4463162
H   1.61478476 2.28762952 -0.61490653
H   -0.88439092 -1.4765784 1.58214449
H   -2.05166363 0.8447894 2.19984439
H   1.79289758 -2.22706533 -1.44523331
H   -2.94755641 -0.34948843 -1.40882294
*
