! Engrad def2-TZVPPD wB97M-D3BJ 
%pal nprocs 8 end%pal nprocs 32 end 
%tddft Nroots 2 Iroot 1 
sf true 
end 
*xyz 0 3 
O   0.18942711 0.92064988 0.00064435
C   0.65998951 -0.35909048 -0.00216171
C   -0.73903383 -0.62530428 0.00117426
H   1.22356977 -0.63025121 0.89244797
H   1.23011019 -0.63623742 -0.90086649
H   -1.27489064 -0.68061625 -0.9191622
H   -1.26884888 -0.67377609 0.93068215
*
