! Engrad wB97M-D3BJ def2-TZVPPD 
%pal nprocs 8 end%pal nprocs 16 end 
%tddft nroots 2 Iroot 1
 sf true 
end 
*xyz 0 3 
O   0.78313929573231 1.00838830686175 -2.022855085e-05
C   0.77207896607288 -0.3303750358789 -7.832134712e-05
C   -0.64287093049032 -0.59806761955674 2.14887312e-05
H   1.26309305862482 -0.77159933553777 0.88096863115691
H   1.26293324415508 -0.77153212945332 -0.8812917598973
H   -1.20409560255148 -0.53525868568755 -0.92299412971078
H   -1.2034169324275 -0.5341401754055 0.92339431961794
*
