7
Coordinates from ORCA-job orca E -153.776282555434
  O           0.51792067856373      1.10286044776172      0.14203450963995
  C           0.59287544735484     -0.22347846697835      0.00874981655398
  C          -0.75251007056978     -0.75333485632720      0.00522846717151
  H           1.18014546521968     -0.73045849526880      0.80412131706202
  H           1.09743557759932     -0.51316473211059     -0.93074764397673
  H          -1.26547811803684     -1.04627059119112     -0.90356103828583
  H          -1.36818898013095     -0.55455330588567      0.87417457183511
