! Engrad def2-TZVPPD wB97M-D3BJ 
%pal nprocs 8 end%pal nprocs 64 end 
%tddft 
 Iroot 1 Nroots 3 
sf true 
end 
*xyz 0 3 
O   1.05836808 1.02260902 0.31740592
C   0.65654612 -0.1771515 -0.28024834
C   -0.62131023 -0.74234744 0.16016333
H   1.42397979 -0.78329373 0.0997864
H   0.63531891 0.0150798 -1.37557678
H   -1.24726811 -1.32787341 -0.46921566
H   -0.88929759 -0.59082188 1.17549657
*
