7
Coordinates from ORCA-job orca E -153.929764382485
  O           1.46891798079737      1.02315377125307     -0.05665228497543
  C           0.94326161487178     -0.01089367182443      0.24946597363317
  C          -0.31018492719935     -0.67202574243949     -0.23341644303589
  H           1.43978072335934     -0.62764725022990      1.03120329162598
  H          -0.04708017317220     -1.65863253250930     -0.61521033786492
  H          -0.82324634658301     -0.09744040644048     -1.00003792110245
  H          -0.96495678958671     -0.82446574875168      0.62464772171953
