30
Coordinates from ORCA-job orca E -908.749779753376
  O           2.15877510993491      0.06242199058778     -1.18489691523957
  O          -0.36268759804439      2.55382216276361     -2.41798450433951
  O           0.38989915601579     -3.72363493284621      0.51701787169303
  O          -2.34958898273395     -1.21433534083905     -1.15415989366050
  N           0.41268830157869     -1.89579309422249      1.86211859559998
  N          -1.43912296452956     -0.15061038529992      0.61132079208520
  N           1.10028277152819     -1.74761149244223     -0.35374677531903
  N          -0.98068574035310      0.51395073711198     -1.62729788676894
  C           1.11636303306345      0.33045508212857      0.93779693977364
  C          -0.10674314418132      2.42486773255234     -0.24856173213000
  C           0.56755691538374     -0.49826829571881      2.05645238294016
  C          -0.36763025006478      0.45016028249022      1.33258490844145
  C           2.08874767563347      1.41697099258084      1.32698420415944
  C          -1.12130839950010      3.30017977597558      0.36500016398916
  C           1.50593709757108     -0.42756643826011     -0.29857238569071
  C          -0.52551096516364      1.80224254117468     -1.46388532376774
  C           0.60684154298693     -2.54686778603697      0.67722176226320
  C          -1.62840463176677     -0.33722812873533     -0.73769364502121
  H           0.87553962670880     -0.22467958833201      3.05369071404424
  H          -0.60640333843949      1.35288208471962      1.87379798505288
  H           2.35660692020461      2.01248920751390      0.46543595937970
  H           1.64696665301367      2.06875693188275      2.07811359582236
  H           2.98293004311999      0.95826278878790      1.74809368507860
  H          -2.13003195162476      2.88370130063916      0.43329158962904
  H          -0.80727743911594      3.73903549970511      1.30819300915444
  H          -1.17536578700652      4.11261716016729     -0.37358863764894
  H           0.01050097550585     -2.46091914288144      2.58799256514878
  H          -1.94678797657553     -0.85996390356185      1.11604138049126
  H           1.33629822406175     -2.25057426977152     -1.19475553768887
  H          -1.15578487721113      0.27023652816657     -2.59140486747155
