! EnGrad wB97M-D3BJ def2-TZVPPD 
%pal nprocs 8 end%pal nprocs 16 end 
%tddft 
 sf true 
 nroots 2 Iroot 1 end 
*xyz 0 3 
O   0.75507065016581 1.36322317291448 -0.01183291851211
C   0.54228635563523 0.20985890299698 0.23821414304882
C   -0.45479292680507 -0.80125919112323 -0.23674883568025
H   1.21160626694685 -0.26530904868737 0.99281835694189
H   0.09884328335854 -1.65850441765371 -0.61908483400803
H   -1.13478733738213 -0.42389730450785 -0.996495227212
H   -1.01602629191923 -1.14251211393932 0.63312931542167
*
