! EnGrad wB97M-D3BJ def2-TZVPPD 
%pal nprocs 8 end%pal nprocs 16 end 
%tddft 
 sf true 
 nroots 2 Iroot 2 end 
*xyz 0 3 
O   0.16740519280549 0.89786245554108 -0.00059017095855
C   0.66498037913586 -0.35949899241653 -4.034558777e-05
C   -0.73066861560407 -0.59986667616379 7.59607078e-05
H   1.22064706208977 -0.64857669457265 0.89570720493304
H   1.22051043335385 -0.64884881399733 -0.89578825092688
H   -1.27058114474579 -0.68087453063515 -0.9280003759995
H   -1.27009330703511 -0.67859674775563 0.92863597783185
*
