! Engrad def2-TZVPPD wB97M-D3BJ 
%pal nprocs 8 end%pal nprocs 64 end 
%tddft 
 Iroot 1 Nroots 3 
sf true 
end 
*xyz 0 3 
O   0.65459883 0.95522349 -0.62493581
C   0.87976728 -0.11552208 0.22028219
C   -0.36878182 -0.71923497 0.68276207
H   1.47820356 0.35664373 1.00300088
H   1.3063948 -0.94093595 -0.29394713
H   -0.61736171 -0.34686537 1.61028689
H   -1.07146365 -1.32470898 -0.02507111
*
