! Engrad def2-TZVPPD wB97M-D3BJ 
%pal nprocs 8 end%pal nprocs 64 end 
%tddft 
 Iroot 1 Nroots 3 
sf true 
end 
*xyz 0 3 
O   -0.25257236 0.99077782 0.3594143
C   0.54195308 -0.10199786 0.5250455
C   1.02976646 -0.7623271 -0.73312651
H   -0.00414007 -0.79057687 1.30193114
H   1.36218885 0.19011359 1.12965622
H   0.71959993 -1.77417656 -0.90601194
H   1.58516367 -0.11756354 -1.4650029
*
