! Engrad def2-TZVPPD wB97M-D3BJ 
%pal nprocs 8 end%pal nprocs 64 end 
%tddft 
 Iroot 1 Nroots 3 
sf true 
end 
*xyz 0 3 
O   3.61361267 -0.82885563 -0.36432138
O   -1.21687854 1.33528137 -2.65440389
O   -0.46698289 -2.85166835 -0.50970882
O   -3.44950805 -0.64676607 0.85936536
N   0.04326753 -1.35905231 1.08732333
N   -1.75341645 0.7771352 1.22921815
N   1.44177068 -1.58112735 -0.74551456
N   -2.16110269 0.09201347 -0.96437135
C   1.88443851 0.0438265 0.96999319
C   -0.33442929 1.57136327 -0.51749757
C   0.53222469 -0.08853144 1.39929395
C   -0.47279489 1.21195434 0.89354858
C   2.82159747 1.07987801 1.52463371
C   0.62725493 2.6102255 -1.11521801
C   2.40760114 -0.80753477 -0.12288999
C   -1.2309738 0.92669971 -1.51637495
C   0.23451553 -1.97670236 -0.10123538
C   -2.50031484 -0.0057849 0.42829348
H   0.54722906 0.02038805 2.50515163
H   -0.17923884 1.95587597 1.57728099
H   3.85575878 0.93684929 1.18808002
H   2.58407931 2.0582014 1.07192881
H   2.71582904 1.10502361 2.61894311
H   0.66015374 2.43558671 -2.21369061
H   0.13497583 3.60316393 -0.9198524
H   1.65232828 2.57726853 -0.67439188
H   -0.81746504 -1.39772022 1.5602624
H   -1.84659223 0.60245147 2.21725335
H   1.74741672 -2.22826411 -1.46683144
H   -2.58665161 -0.68532618 -1.42924263
*
