! Engrad def2-TZVPPD wB97M-D3BJ 
%pal nprocs 8 end%pal nprocs 64 end 
%tddft Nroots 2 Iroot 2 
sf true 
end 
*xyz 0 3 
O   2.19185183 1.35582306 -0.41029081
O   -0.73945917 0.80221523 -2.34138711
O   0.94989083 -2.90423497 -1.56422182
O   -2.44813967 -1.41874306 1.26003613
N   0.83916455 -2.34241167 0.61487757
N   -2.05162056 0.81647084 1.3675625
N   1.53382624 -0.75280915 -0.98436344
N   -1.53319293 -0.30567633 -0.53178543
C   1.49599769 -0.07652753 1.37420788
C   -0.93808395 2.07605928 -0.40711554
C   0.82428797 -1.3231393 1.58170648
C   -1.43653212 1.95622445 0.84411397
C   1.62338499 0.90116436 2.47433698
C   -0.32470883 3.33422103 -0.85315105
C   1.83438567 0.22746332 -0.02251166
C   -1.03602898 0.85939431 -1.18061129
C   1.111097 -2.05199771 -0.7168825
C   -2.03841635 -0.41963142 0.75256096
H   0.49989192 -1.59331378 2.58484413
H   -1.3587838 2.77764401 1.52906961
H   0.69459488 1.54192723 2.48760874
H   1.70265599 0.35126922 3.4159802
H   2.46019002 1.50690565 2.35018095
H   -0.77109927 3.62764083 -1.79728946
H   -0.50031054 4.13885093 -0.10765135
H   0.7303863 3.21043505 -1.10808124
H   0.49797782 -3.26541748 0.68272974
H   -2.43440864 0.73698327 2.3015348
H   1.86808649 -0.6031217 -1.93588733
H   -1.43829422 -1.17919262 -1.02476082
*
