! EnGrad wB97M-D3BJ def2-TZVPPD 
%pal nprocs 8 end%pal nprocs 16 end 
%tddft 
 sf true 
 nroots 2 Iroot 1 end 
*xyz 0 3 
O   0.21179683984995 0.92895308138338 -0.00115161174452
C   0.65422664730742 -0.3429233894679 -0.00021594160068
C   -0.73286653931236 -0.6354266713674 0.00026291717965
H   1.21135161832625 -0.64525931653547 0.89239566775958
H   1.21148991072622 -0.6461078330285 -0.89241809140161
H   -1.27728180507958 -0.69014460057122 -0.92774857907059
H   -1.27651667181791 -0.68749127041288 0.92887563887817
*
