! Engrad wB97M-D3BJ def2-TZVPPD 
%pal nprocs 8 end%pal nprocs 16 end 
%tddft nroots 2 Iroot 2
 sf true 
end 
*xyz 0 3 
O   1.12393374120777 1.13064428525052 0.09719327131911
C   0.90254996171279 0.01642031031008 -0.30555037648228
C   -0.3167989549273 -0.69488608389984 0.21907426896154
H   -0.03108142650819 -1.6272541878404 0.70904979619382
H   1.55707680039775 -0.48814738937879 -1.03536242478991
H   -0.98176070560939 -0.96523738347083 -0.60291906808713
H   -0.82883423496591 -0.04399183163406 0.91851453288486
*
