! Engrad def2-TZVPPD wB97M-D3BJ 
%pal nprocs 8 end%pal nprocs 64 end 
%tddft 
 Iroot 2 Nroots 3 
sf true 
end 
*xyz 0 3 
O   0.80040771 -0.76496129 -0.69629032
C   0.77160827 0.09968265 0.42619463
C   -0.43432661 0.93133341 0.56152401
H   1.6237819 0.80097062 0.20717912
H   0.88240446 -0.48718174 1.33050176
H   -0.334065 2.02645969 0.43365045
H   -1.44587861 0.51456494 0.54800014
*
