7
Coordinates from ORCA-job orca E -153.922890051676
  O           1.59917800027676      0.97826920843120      0.00742806452389
  C           0.95795029961996     -0.01165531183302      0.22210113472885
  C          -0.30215611392411     -0.67333129808056     -0.24668701568414
  H           1.38827843034297     -0.68479604511015      1.00612657432188
  H          -0.02296244477459     -1.66497634028151     -0.60125292863296
  H          -0.84887994784996     -0.13808026691088     -1.02004779264637
  H          -0.93118930289289     -0.80930383251072      0.63233196338885
