7
Coordinates from ORCA-job orca E -153.819930217408
  O           0.57865539808902      0.98226040490884     -0.00030630368776
  C           0.75348998546475     -0.34610095038202     -0.00007771971762
  C          -0.65356427935109     -0.58236607758167      0.00011923951582
  H           1.26981308445213     -0.73792525058865      0.88626608676499
  H           1.26954743289918     -0.73836632493390     -0.88638172748461
  H          -1.20728901416780     -0.54209853070999     -0.92572590119342
  H          -1.20702829040855     -0.54182361937111      0.92610632580260
