! EnGrad wB97M-D3BJ def2-TZVPPD 
%pal nprocs 8 end%pal nprocs 16 end 
%tddft 
 sf true 
 nroots 2 Iroot 2 end 
*xyz 0 3 
O   0.53703281507079 1.35039874059435 0.09010782165612
C   0.55570301028334 0.20110720649977 -0.26228387039177
C   -0.42878675800533 -0.82826571637301 0.20803921737875
H   0.10449313691587 -1.64988589548246 0.68814100727754
H   1.32595593178614 -0.1547267799669 -0.97283964157228
H   -0.9527581560686 -1.25059618260523 -0.6505225718041
H   -1.1394399799822 -0.38643137266652 0.89935803745575
*
