! Engrad def2-TZVPPD wB97M-D3BJ 
%pal nprocs 8 end%pal nprocs 64 end 
%tddft Nroots 2 Iroot 2 
sf true 
end 
*xyz 0 3 
O   2.99935541 1.27231046 -0.49281316
O   -0.56832843 0.37521879 -1.86802534
O   1.42683417 -2.80868414 -1.78912103
O   -3.05509561 -1.36938422 1.51313622
N   0.73767857 -2.00836839 0.24518163
N   -2.3665334 0.77355177 1.64292939
N   2.16704048 -0.77908232 -1.09467164
N   -1.99096445 -0.40058404 -0.27461864
C   1.50626564 0.11442605 0.99331478
C   -0.96501256 1.7913784 -0.00799747
C   0.76140007 -1.03867012 1.19896454
C   -1.60967965 1.82144822 1.15316115
C   1.64388374 1.19612942 2.02003223
C   -0.11291542 2.90098232 -0.54113284
C   2.26615595 0.31134225 -0.23106835
C   -1.12547394 0.59192432 -0.81554593
C   1.42618146 -1.92265506 -0.9631519
C   -2.49384913 -0.43257089 1.00904463
H   0.35479229 -1.3563643 2.14940022
H   -1.5154172 2.66664148 1.83748023
H   1.39607008 2.21189731 1.55812029
H   0.98687905 0.99702422 2.86149197
H   2.69506419 1.27304424 2.29907294
H   -0.40176565 3.14481921 -1.56389208
H   -0.18870118 3.74324933 0.13878646
H   0.95050985 2.62026533 -0.56449377
H   0.20731818 -2.87293557 0.34139125
H   -2.8719479 0.88098129 2.49479094
H   2.67504939 -0.73466828 -1.94452015
H   -1.92123526 -1.28568825 -0.76949229
*
