! Engrad def2-TZVPPD wB97M-D3BJ 
%pal nprocs 8 end%pal nprocs 64 end 
%tddft 
 Iroot 2 Nroots 3 
sf true 
end 
*xyz 0 3 
O   1.21161997 0.87408012 0.35190209
C   0.17488868 -0.01519553 0.554295
C   -0.21118206 -0.70150606 -0.7153784
H   -0.67765282 0.41104058 1.01575549
H   0.38985415 -0.92413547 1.12968162
H   -1.17803305 -0.60246771 -1.30372506
H   0.42149112 -1.27748245 -1.32385805
*
