30
Coordinates from ORCA-job orca E -908.748761858741
  O           4.12429337789332     -0.40098173952542      1.41878476468711
  O          -2.29350435346589      1.96146902701131     -2.01712740353188
  O           1.40164718633547     -2.69669114478627     -1.30047338339769
  O          -3.57940156976333     -1.67246473798605      0.34619526306086
  N           0.53029256613946     -0.83353575554449     -0.29923091167990
  N          -1.93951626193501     -0.37674486116550      1.22727488676000
  N           2.55611566749818     -1.72621263958020      0.41433905698604
  N          -2.74358720518967      0.03665599076859     -0.90431568816547
  C           1.91488225009321      0.43617592030140      1.14944053107835
  C          -1.18878402914757      1.61186973458349      0.03813510609170
  C           0.52015052336099     -0.17194041178908      0.99806990218151
  C          -0.92377567663075      0.63836015188996      1.12451250484073
  C           2.20900657112351      1.84583137424729      1.24429272291866
  C          -0.55265760290944      2.92556979287663      0.02100355903114
  C           2.97697799430073     -0.56416975682877      1.05586816316803
  C          -2.08788821516182      1.26386215614917     -1.03989367129490
  C           1.46458177799535     -1.81999236457150     -0.47509542560631
  C          -2.81347032882935     -0.74189659413313      0.24104837628362
  H           0.45799169023895     -0.96312173860728      1.76257533466076
  H          -0.84482396210465      1.17303683324787      2.07422443723537
  H           3.25229998606255      2.01772305652604      1.49078472622849
  H           1.97899216877028      2.36850335814020      0.28675537656624
  H           1.54124419967655      2.34710524925124      1.95574309606932
  H          -0.41207600134376      3.32987917215243      1.02559987625602
  H           0.46818528651282      2.88469598346717     -0.41783760984964
  H          -1.11477654975790      3.61469076920502     -0.60245144193816
  H          -0.34283828225178     -0.99346506824957     -0.77871454944652
  H          -1.96221147694937     -0.97215316457934      2.03542383986964
  H           3.27183166638045     -2.41772972880398      0.24894793321613
  H          -3.41658139694156     -0.18932886366729     -1.61927937227928
