! Engrad def2-TZVPPD wB97M-D3BJ 
%pal nprocs 8 end%pal nprocs 64 end 
%tddft Nroots 2 Iroot 1 
sf true 
end 
*xyz 0 3 
O   2.53097443 1.23311728 -0.49794143
O   -0.64186629 0.86292043 -2.3062893
O   0.57060022 -2.71793346 -1.55189984
O   -2.44990123 -1.63651776 0.99111499
N   0.62541076 -2.13241799 0.65071566
N   -2.10398351 0.59756376 1.420233
N   1.75865645 -0.88900946 -0.93529425
N   -1.61774049 -0.34183853 -0.63185308
C   1.50648042 0.03186416 1.25249645
C   -0.86269972 1.9075422 -0.19014796
C   0.82490209 -1.11900237 1.56025904
C   -1.44986946 1.75061287 1.10042437
C   1.80891338 1.07966716 2.2842446
C   -0.24099913 3.1542999 -0.67127608
C   1.98153071 0.20202056 -0.09425946
C   -0.99220825 0.82243283 -1.12679796
C   0.91958596 -1.9617594 -0.68760782
C   -2.05862771 -0.53967769 0.6261112
H   0.68830559 -1.37527617 2.63169646
H   -1.4276806 2.48556264 1.89429809
H   1.61424834 2.08663001 1.89660261
H   1.27236279 0.87070584 3.19651539
H   2.85346891 1.04758741 2.47843312
H   -0.60194544 3.45311329 -1.67178251
H   -0.33253671 3.98591725 0.03606265
H   0.7802796 3.00963556 -0.80171394
H   -0.00018396 -2.94578139 0.76447192
H   -2.28329035 0.40702494 2.36406251
H   1.89810464 -0.72130089 -1.94748121
H   -1.65987328 -1.1668806 -1.22888164
*
