! Engrad def2-TZVPPD wB97M-D3BJ 
%pal nprocs 8 end%pal nprocs 32 end 
%tddft Nroots 2 Iroot 2 
sf true 
end 
*xyz 0 3 
O   0.19898713 1.08646712 0.00322677
C   0.63422062 -0.24731424 -0.10734284
C   -0.76000506 -0.98097083 0.1085947
H   1.41577957 -0.42669007 0.67235744
H   1.24959863 -0.39578715 -1.01750996
H   -1.28613699 -0.97475077 -0.81303198
H   -1.11891758 -0.57555437 1.03513017
*
