! EnGrad wB97M-D3BJ def2-TZVPPD 
%pal nprocs 8 end%pal nprocs 16 end 
%tddft 
 sf true 
 nroots 2 Iroot 2 end 
*xyz 0 3 
O   0.06205695334 0.82226519326207 -7.404145095e-05
C   0.69977469551352 -0.40402021671564 6.603111605e-05
C   -0.72779949401635 -0.49983786865896 -8.395884284e-05
H   1.24457486183211 -0.65405708273903 0.90712469771802
H   1.24442991002247 -0.65417302396337 -0.90706987711121
H   -1.2605229611099 -0.66447878185161 -0.92329446981153
H   -1.26031396558184 -0.66409821933346 0.92333161838246
*
