! Engrad def2-TZVPPD wB97M-D3BJ 
%pal nprocs 8 end%pal nprocs 64 end 
%tddft Nroots 2 Iroot 1 
sf true 
end 
*xyz 0 3 
O   2.84482567 1.04282252 -0.61441324
O   -0.23328852 0.82535049 -2.01253308
O   0.42228983 -2.53818972 -1.63952371
O   -2.61387961 -1.7514889 0.70868787
N   0.50627728 -2.03576652 0.61001344
N   -2.4077359 0.49294651 1.23475499
N   1.90730605 -0.95659119 -0.87544529
N   -1.66233965 -0.31834654 -0.75933401
C   1.62464717 0.09381377 1.21491935
C   -0.92215072 1.85509439 0.01519533
C   0.81456136 -1.04943975 1.5199914
C   -1.7419751 1.67375704 1.05634383
C   1.91344016 1.11801207 2.27552663
C   0.00589608 3.00502279 -0.14169967
C   2.12446459 0.18501129 -0.11272192
C   -0.92177319 0.82069438 -1.02737029
C   0.89529269 -1.87004517 -0.74578858
C   -2.22758914 -0.65196952 0.4260934
H   0.36422657 -1.2175369 2.46927592
H   -1.95824214 2.44864512 1.76025582
H   1.02094585 1.43386795 2.77373233
H   2.59523164 0.74880116 3.08347478
H   2.4693004 1.98114278 1.78036494
H   0.11280174 3.28115545 -1.20445466
H   -0.39928108 3.86471166 0.42877125
H   1.02736044 2.67267484 0.19797557
H   -0.30566103 -2.69129015 0.71268377
H   -2.92241162 0.24270854 2.08166182
H   2.29214414 -0.88990671 -1.80215345
H   -1.40180014 -1.08743617 -1.35952028
*
