! Engrad def2-TZVPPD wB97M-D3BJ 
%pal nprocs 8 end%pal nprocs 32 end 
%tddft Nroots 2 Iroot 2 
sf true 
end 
*xyz 0 3 
O   -0.3350061 0.99547582 -0.4774957
C   0.28786033 0.10835727 0.38727323
C   0.08119417 -1.25028252 0.08424712
H   -0.24467532 0.24628642 1.34678486
H   1.33239087 0.43501341 0.65198294
H   -0.46224445 -1.64963216 -0.78864126
H   0.31738295 -1.85706221 0.84356174
*
