! Engrad def2-TZVPPD wB97M-D3BJ 
%pal nprocs 8 end%pal nprocs 64 end 
%tddft 
 Iroot 1 Nroots 3 
sf true 
end 
*xyz 0 3 
O   3.14040359 0.14948427 -1.75613981
O   -2.11670629 0.5538058 -1.88923884
O   -0.58750721 -2.35916165 -1.33128473
O   -2.92507059 -0.36796982 2.51090215
N   0.30665493 -1.52223911 0.58290434
N   -1.08704385 0.67551506 1.94483848
N   1.34123612 -1.18202452 -1.49219766
N   -2.44896749 -0.10293295 0.31346251
C   2.13163279 0.04324592 0.35336512
C   -0.44266659 1.21214294 -0.31457528
C   0.99702635 -0.38326463 1.1024372
C   0.02899155 0.90987172 1.05070564
C   3.05548195 1.06743344 0.98349028
C   0.19938509 2.08390636 -1.3411399
C   2.2250395 -0.18063846 -1.05762415
C   -1.70255331 0.4954138 -0.73396949
C   0.24628943 -1.73652503 -0.77928024
C   -2.20679438 -0.00079736 1.64401409
H   1.35470121 -0.51655793 2.20962894
H   0.64605718 1.6521145 1.43487281
H   2.75443942 1.28628315 2.00042571
H   4.02164281 0.70487432 0.90827475
H   3.08424108 2.04766119 0.49418909
H   -0.34475552 2.94768915 -1.62030866
H   1.20202127 2.37751526 -0.91369346
H   0.49200653 1.64067245 -2.31022479
H   -0.52743342 -1.71783724 1.06734325
H   -0.92274751 0.74019816 2.93421129
H   1.43530219 -1.51923199 -2.4424933
H   -3.1221663 -0.77266064 -0.0009235
*
