! Engrad def2-TZVPPD wB97M-D3BJ 
%pal nprocs 8 end%pal nprocs 64 end 
%tddft 
 Iroot 2 Nroots 3 
sf true 
end 
*xyz 0 3 
O   -0.32601215 -0.34896925 0.93483244
C   0.31313028 0.52853794 0.06809242
C   1.32836738 0.0098215 -0.84429539
H   0.88854075 1.35321113 0.67306704
H   -0.33782652 1.1094855 -0.50235711
H   1.46188617 -1.12531709 -0.79994868
H   1.58494133 0.49362609 -1.82539957
*
