! EnGrad wB97M-D3BJ def2-TZVPPD 
%pal nprocs 8 end%pal nprocs 16 end 
%tddft 
 sf true 
 nroots 2 Iroot 1 end 
*xyz 0 3 
O   -0.07750600652458 0.7555969881213 -4.125397772e-05
C   0.78088379378008 -0.5013046829132 -1.49690402e-06
C   -0.74183729389539 -0.37450498235993 6.99623163e-06
H   1.29396651045885 -0.65101246397276 0.93450435390246
H   1.29398863267388 -0.6510582806944 -0.93448527950738
H   -1.27362666365739 -0.64810782388982 -0.91124713999066
H   -1.27366897283543 -0.64800875429119 0.91126382024568
*
