! EnGrad wB97M-D3BJ def2-TZVPPD 
%pal nprocs 8 end%pal nprocs 16 end 
%tddft 
 sf true 
 nroots 2 Iroot 2 end 
*xyz 0 3 
O   0.47024363503161 1.27765982877763 0.11599792313765
C   0.62000764904794 0.14960816454949 -0.29018127448423
C   -0.44057400969948 -0.81537280804701 0.19381603784097
H   0.00735772886541 -1.63486247108849 0.75921488326964
H   1.44488372805477 -0.15950464347431 -0.94884433358296
H   -0.96654867010912 -1.27255672493251 -0.64655137565643
H   -1.13317006119113 -0.2633713457848 0.81654813947537
*
