! Engrad def2-TZVPPD wB97M-D3BJ 
%pal nprocs 8 end%pal nprocs 64 end 
%tddft Nroots 2 Iroot 2 
sf true 
end 
*xyz 0 3 
O   2.92474443 0.49369964 -1.01902885
O   -0.3569709 1.54226263 -2.17831114
O   0.33641853 -3.12693654 -0.2670282
O   -3.06087644 -1.67322808 -0.49304033
N   0.35024527 -1.46662491 1.25919378
N   -2.05908346 -0.18721239 0.97106888
N   1.42145279 -1.18483298 -0.77221933
N   -1.3962747 -0.2564714 -1.26186646
C   1.66792227 0.48899779 0.90027995
C   -0.87368805 1.64144245 0.10246834
C   0.43651177 -0.11117107 1.58607653
C   -0.96390408 0.70503043 1.24159141
C   2.39992391 1.58015086 1.50844175
C   -0.59378586 3.07993836 0.22193748
C   2.08816876 -0.04617192 -0.34954871
C   -0.86566085 1.00674875 -1.21441135
C   0.65739679 -2.016144 0.0298392
C   -2.23982201 -0.80700637 -0.26504956
H   0.59696132 0.02386044 2.6878403
H   -1.13850358 1.28412487 2.15543556
H   3.13831431 1.85709145 0.80001083
H   1.79209806 2.49550029 1.68191766
H   2.90656528 1.33434891 2.43354358
H   -1.53306808 3.63080201 0.34203786
H   0.02870343 3.24223781 1.08867049
H   -0.11934942 3.44980924 -0.65231932
H   -0.28554851 -2.03777217 1.80561091
H   -2.57060568 -0.66371144 1.72065189
H   1.67337713 -1.48161225 -1.71098996
H   -1.56372583 -0.58711519 -2.19981065
*
