! Engrad def2-TZVPPD wB97M-D3BJ 
%pal nprocs 8 end%pal nprocs 64 end 
%tddft Nroots 2 Iroot 1 
sf true 
end 
*xyz 0 3 
O   2.09098538 -0.17008191 -1.24862206
O   -0.01811027 2.71143212 -2.1762366
O   0.48635497 -3.81915724 0.68399371
O   -1.98411537 -1.07889316 -1.33718626
N   0.49174886 -2.02046059 1.99886702
N   -1.3744619 -0.12112186 0.60190774
N   1.03395 -1.913532 -0.30815915
N   -0.51784158 0.60062483 -1.5033923
C   1.16317151 0.17744203 0.90384225
C   -1.36581754 2.56581835 -0.3737045
C   0.65895424 -0.59075155 2.11806771
C   -0.24583217 0.36188437 1.34552822
C   2.03387744 1.39660605 1.12577099
C   -1.36875566 3.75698787 0.42279019
C   1.49434267 -0.61593729 -0.31917017
C   -0.66044687 1.9625627 -1.43101968
C   0.64050815 -2.68878161 0.81412906
C   -1.39250354 -0.19282222 -0.75485566
H   0.98323179 -0.19869752 3.09287487
H   -0.35288378 1.36007683 1.71011097
H   2.15852576 1.98157411 0.25152741
H   1.71071731 2.01083068 1.92551569
H   3.08507146 1.13776382 1.35581256
H   -2.17153485 3.86658538 1.08232415
H   -0.41780805 3.73341735 1.00053023
H   -1.34813583 4.56847341 -0.3215638
H   0.2167794 -2.60237649 2.75521579
H   -2.14679084 -0.55013186 1.14009939
H   1.15327937 -2.51856197 -1.14300574
H   -0.36719279 0.22102726 -2.44990084
*
