! Engrad def2-TZVPPD wB97M-D3BJ 
%pal nprocs 8 end%pal nprocs 32 end 
%tddft Nroots 2 Iroot 2 
sf true 
end 
*xyz 0 3 
O   0.50907493 1.33881805 0.07586773
C   0.57769415 0.1649308 -0.28866573
C   -0.43319135 -0.82376291 0.21111111
H   0.07627179 -1.64552929 0.73201041
H   1.36436292 -0.15514477 -0.95965074
H   -0.96246151 -1.26415178 -0.63360316
H   -1.13389317 -0.33188164 0.86448172
*
