! Engrad wB97M-D3BJ def2-TZVPPD 
%pal nprocs 8 end%pal nprocs 16 end 
%tddft nroots 2 Iroot 1
 sf true 
end 
*xyz 0 3 
O   1.79648419137197 0.85537017349675 0.06911639374498
C   0.99217519835963 -0.02933185085873 0.17010141306185
C   -0.30399180004927 -0.66817344908579 -0.25374723914696
H   1.32260143198452 -0.77393503434131 0.953851318346
H   -0.03348912896476 -1.67317103817041 -0.57156569375949
H   -0.89109667489498 -0.17488914112839 -1.0279057189498
H   -0.88800826721303 -0.75723724914174 0.66014952670341
*
