! Engrad def2-TZVPPD wB97M-D3BJ 
%pal nprocs 8 end%pal nprocs 64 end 
%tddft Nroots 2 Iroot 2 
sf true 
end 
*xyz 0 3 
O   3.09215661 0.56396616 -0.82967763
O   -0.49476191 1.33929764 -2.31247215
O   0.39561671 -3.04803779 -0.52495195
O   -3.15578352 -1.60890054 -0.19981409
N   0.2637998 -1.49442365 1.09640675
N   -2.06474351 -0.02904285 0.99123095
N   1.62133293 -1.16492766 -0.75762254
N   -1.51890278 -0.3106042 -1.17161323
C   1.71437781 0.42653422 1.00869306
C   -0.78515061 1.61151704 0.00712953
C   0.43247203 -0.12421434 1.51282458
C   -0.90394701 0.76109926 1.19574381
C   2.28142687 1.58869515 1.69539315
C   -0.54477285 3.04106538 0.07984581
C   2.22746295 -0.01831354 -0.24629935
C   -0.88313135 0.91684427 -1.24537788
C   0.75784843 -2.00024596 -0.0662855
C   -2.3403862 -0.74021016 -0.12669623
H   0.49340921 -0.160526 2.6157683
H   -1.13312463 1.38472462 2.07376018
H   2.87518657 2.19376301 1.02852292
H   1.50012778 2.20562322 2.14392544
H   2.94317096 1.22671813 2.49008999
H   -1.47334834 3.56663412 0.40085062
H   0.16653053 3.27162825 0.84921615
H   -0.25579922 3.4562129 -0.89384664
H   -0.43003991 -2.0858681 1.52160017
H   -2.54842054 -0.35447502 1.82869561
H   2.03449936 -1.55598265 -1.61166731
H   -1.5953694 -0.77880071 -2.05303958
*
