! Engrad def2-TZVPPD wB97M-D3BJ 
%pal nprocs 8 end%pal nprocs 64 end 
%tddft 
 Iroot 2 Nroots 3 
sf true 
end 
*xyz 0 3 
O   0.97337856 1.01200832 0.20615474
C   0.7804323 -0.31397095 -0.00246194
C   -0.6489659 -0.59797587 0.0059296
H   1.32669987 -0.88938423 0.75873739
H   1.2513366 -0.61530009 -0.93900186
H   -1.17417878 -0.87439848 -0.8753996
H   -1.21811734 -0.2211954 0.83214081
*
