! Engrad def2-TZVPPD wB97M-D3BJ 
%pal nprocs 8 end%pal nprocs 64 end 
%tddft Nroots 2 Iroot 2 
sf true 
end 
*xyz 0 3 
O   3.11789204 0.53801556 -0.85813864
O   -0.44090619 1.34317574 -2.31400634
O   0.42613279 -3.06703736 -0.54608588
O   -3.14861769 -1.59576755 -0.24639961
N   0.28505229 -1.51818513 1.10255696
N   -2.12939861 -0.02855266 1.04689857
N   1.58871736 -1.14207 -0.79158641
N   -1.50706556 -0.30776928 -1.17481764
C   1.58950977 0.51818984 0.94873876
C   -0.63765601 1.56472146 0.05014897
C   0.37719205 -0.1494989 1.57765866
C   -0.91654252 0.72453344 1.27256637
C   2.31205304 1.58881436 1.69172058
C   -0.59522729 3.04547847 0.11200719
C   2.17091513 0.01393673 -0.28221379
C   -0.8229558 0.91066278 -1.23727108
C   0.73141331 -1.98181759 -0.1071222
C   -2.31642168 -0.72301589 -0.12936803
H   0.50258817 -0.1781469 2.65956213
H   -1.078416 1.37944944 2.13451243
H   3.00709359 2.11852681 1.04920893
H   1.62302128 2.31257774 2.16454427
H   2.86923065 1.14755673 2.52771075
H   -1.5757267 3.43324586 0.37882797
H   0.0581592 3.40260104 0.90603201
H   -0.2886923 3.43076832 -0.85846958
H   -0.37700404 -2.1350027 1.54640788
H   -2.67575548 -0.36187753 1.82663835
H   1.99505966 -1.50807372 -1.65405494
H   -1.66063818 -0.78700275 -2.0574769
*
