! Engrad def2-TZVPPD wB97M-D3BJ 
%pal nprocs 8 end%pal nprocs 32 end 
 %tddft nroots 2 Iroot 2 
sf true 
end 
*xyz 0 3 
O   2.84848415747658 1.26607707918683 -0.50671195925196
O   -0.48865721142152 0.50771284621002 -1.97807839371852
O   1.32542149781928 -2.86193716803256 -1.64167100066094
O   -3.03728250555473 -1.48273463737307 1.19696470944658
N   0.66672987504133 -1.95308796151866 0.33997600968978
N   -2.21425069444319 0.60371240639805 1.60418047310305
N   2.09076570626059 -0.7947465205488 -1.04284992803971
N   -1.8675300820778 -0.3968471690333 -0.43391344887161
C   1.26170615738577 0.27481170888956 0.95848702235349
C   -0.74195111153484 1.67636384615671 0.07473976512481
C   0.66612088741007 -0.89993623757425 1.22087034195318
C   -1.46849455601477 1.69107717087723 1.19765659939898
C   1.47094151568825 1.31253335379035 2.0188501357335
C   -0.00374042243914 2.87858402494113 -0.42951605473068
C   2.12048530477488 0.33432856839577 -0.23381221364757
C   -0.98302984400871 0.58677716422393 -0.8752479074895
C   1.35432952594542 -1.94339850289036 -0.85713402265186
C   -2.42408125377757 -0.5074930452901 0.81952038479661
H   0.13147254780332 -1.07765941396299 2.14190089022253
H   -1.44812873881316 2.51986116893335 1.8879176668081
H   1.35841300577368 2.31871428908117 1.63064760613713
H   0.77136713756325 1.16545254039312 2.83873955208669
H   2.48332967931613 1.23722537597802 2.41317235993748
H   -0.45103965278571 3.21861276925023 -1.36162962348958
H   -0.0542835019017 3.68732150102696 0.29629881010585
H   1.03910352188227 2.65903584060819 -0.63631798318025
H   0.12907049511003 -2.78076553202168 0.52672388576637
H   -2.68101340184216 0.59681987266387 2.49296701607545
H   2.60685154988519 -0.74050379701173 -1.90647431236762
H   -2.0085095885211 -1.18091154174707 -1.05165638063984
*
