! Engrad def2-TZVPPD wB97M-D3BJ 
%pal nprocs 8 end%pal nprocs 64 end 
%tddft 
 Iroot 1 Nroots 3 
sf true 
end 
*xyz 0 3 
O   1.32091335 0.49253495 0.65384811
C   0.62652059 -0.10403273 -0.40482105
C   -0.84744078 -0.258953 -0.052951
H   1.10432446 -1.06614057 -0.63874204
H   0.56937725 0.68402416 -1.15984951
H   -1.5296856 -0.32765743 -0.98197032
H   -1.32243156 -0.19270116 0.872656
*
