! Engrad wB97M-D3BJ def2-TZVPPD 
%pal nprocs 8 end%pal nprocs 16 end 
%tddft nroots 2 Iroot 2
 sf true 
end 
*xyz 0 3 
O   1.63724074467084 0.95451622405092 -0.00258523433223
C   0.96627013341673 -0.01641844266494 0.2077828167422
C   -0.30491290522307 -0.67123147702617 -0.2431236511985
H   1.38187171359526 -0.69566394718515 0.99654241703791
H   -0.03436890229212 -1.66989258158508 -0.58359186007668
H   -0.85683882833815 -0.1461402077495 -1.02003705198459
H   -0.92453450505528 -0.7882958906001 0.64501256381188
*
