! Engrad def2-TZVPPD wB97M-D3BJ 
%pal nprocs 8 end%pal nprocs 64 end 
%tddft 
 Iroot 2 Nroots 3 
sf true 
end 
*xyz 0 3 
O   1.21278339 0.70690855 0.53210143
C   -0.01769731 0.33927946 0.18278688
C   0.03184192 -0.93706118 -0.55741042
H   -0.46548505 1.23830717 -0.431678
H   -0.58956413 0.20639294 1.07438699
H   -0.81866317 -1.62945637 -0.55787673
H   1.00656819 -1.16926083 -0.90166471
*
