! Engrad def2-TZVPPD wB97M-D3BJ 
%pal nprocs 8 end%pal nprocs 32 end 
%tddft Nroots 2 Iroot 2 
sf true 
end 
*xyz 0 3 
O   0.56129594 1.18586029 0.05995269
C   0.49896241 -0.2669526 0.1281243
C   -0.82513711 -0.87518597 -0.17374284
H   0.83199138 -0.4202014 1.12348412
H   1.22022457 -0.74182037 -0.47634831
H   -1.50895996 -0.17416854 -0.63495703
H   -0.92310456 -1.92543058 -0.47253812
*
