! Engrad def2-TZVPPD wB97M-D3BJ 
%pal nprocs 8 end%pal nprocs 64 end 
%tddft 
 Iroot 2 Nroots 3 
sf true 
end 
*xyz 0 3 
O   0.39285631 1.06583267 0.60540801
C   0.41327946 -0.28907572 0.5164617
C   0.41655589 -0.63470852 -1.00200959
H   -0.47255534 -0.703201 1.06945826
H   1.21825002 -0.82756804 1.22492378
H   -0.14702376 -1.47937663 -1.32408124
H   1.02767343 -0.03959976 -1.63270019
*
