! Engrad def2-TZVPPD wB97M-D3BJ 
%pal nprocs 8 end%pal nprocs 64 end 
%tddft Nroots 2 Iroot 1 
sf true 
end 
*xyz 0 3 
O   2.37105601 -0.35796004 -1.13388858
O   -0.16330571 2.85363706 -2.23266777
O   0.20145222 -3.80361003 0.81585353
O   -2.07426548 -1.05802526 -1.47202341
N   0.39866376 -1.89148499 2.02784484
N   -1.36675939 -0.21828796 0.5020259
N   1.08710035 -1.96637064 -0.19841607
N   -0.7569562 0.76782344 -1.59279107
C   1.41247631 0.11062934 0.9903215
C   -0.41280618 2.76212799 -0.07080462
C   0.5914143 -0.47957093 2.07058491
C   -0.38600337 0.38039762 1.31992318
C   2.30940436 1.30071764 1.23363329
C   -1.65044387 3.43345365 0.29695077
C   1.674638 -0.715913 -0.21063692
C   -0.43088122 2.09091325 -1.33312979
C   0.52733696 -2.64381301 0.88576388
C   -1.4571572 -0.21678226 -0.88007519
H   0.81664971 -0.15199021 3.06489582
H   -0.5229676 1.39265038 1.63214245
H   2.42644344 1.86719432 0.31625104
H   1.868287 1.9523069 1.9842601
H   3.28985113 0.98471933 1.58660032
H   -2.50530669 2.75414973 0.21001898
H   -1.64568705 3.88040869 1.28514489
H   -1.79650228 4.2417834 -0.42405307
H   -0.03576708 -2.35883504 2.79330998
H   -1.81273698 -1.03794623 0.87667536
H   1.23223799 -2.52574791 -1.02111707
H   -0.74595464 0.58752841 -2.58707061
*
