! EnGrad wB97M-D3BJ def2-TZVPPD 
%pal nprocs 8 end%pal nprocs 16 end 
%tddft 
 sf true 
 nroots 2 Iroot 1 end 
*xyz 0 3 
O   0.50515738679936 1.34370017167461 0.08936453808775
C   0.5602258710038 0.19678271934966 -0.26994480674572
C   -0.4260564683317 -0.83041293957751 0.20664299826665
H   0.10104217804279 -1.64445998898849 0.70630129595297
H   1.34512796751723 -0.14405320191745 -0.96933863113212
H   -0.94482527658987 -1.26802341636372 -0.64747795951684
H   -1.13847165844162 -0.3719333441771 0.88445256508731
*
