! Engrad def2-TZVPPD wB97M-D3BJ 
%pal nprocs 8 end%pal nprocs 64 end 
%tddft 
 Iroot 2 Nroots 3 
sf true 
end 
*xyz 0 3 
O   2.4164366 -0.45205749 -2.2962133
O   -1.7151232 1.7198337 -1.67560216
O   -1.45109406 -2.43243357 -0.94345916
O   -2.84803944 0.59501321 2.58732767
N   0.10228735 -1.82084864 0.64630355
N   -0.68974237 0.75280569 2.1418841
N   0.55556877 -1.58558487 -1.56181346
N   -2.18320802 0.65851521 0.30236987
C   2.16461073 -0.65679204 0.00323545
C   0.01206307 1.26301172 -0.14872851
C   1.0613475 -0.81507482 1.01566408
C   0.41594185 0.70471584 1.19127305
C   3.40959689 0.2072815 0.36939882
C   1.02459641 1.98691133 -0.98868106
C   1.75864337 -0.93319059 -1.35472226
C   -1.35808283 1.25213782 -0.62452766
C   -0.36943853 -2.00052064 -0.60924725
C   -1.99567547 0.63577167 1.70226444
H   1.29103807 -0.87624619 2.09828909
H   1.30658636 1.31994314 1.48463342
H   3.82353027 0.68572976 -0.49689542
H   3.11890768 1.0732098 0.93083321
H   4.03252914 -0.49289775 0.97123307
H   0.68595037 3.03416266 -1.0347633
H   2.03013628 1.96294888 -0.65227083
H   1.01487168 1.66558744 -2.02214425
H   -0.48593293 -2.13106167 1.37442771
H   -0.67700189 1.11960493 3.0892058
H   0.32621696 -1.7870006 -2.57116853
H   -3.11272805 0.38376212 0.03183894
*
