! Engrad def2-TZVPPD wB97M-D3BJ 
%pal nprocs 8 end%pal nprocs 64 end 
%tddft 
 Iroot 2 Nroots 3 
sf true 
end 
*xyz 0 3 
O   3.44701087 -0.09353346 -1.04416477
O   -1.59858788 0.60479127 -2.48158924
O   0.29760935 -3.17322856 -0.54904067
O   -3.67664724 -0.37863263 1.46359416
N   0.19430373 -1.4269948 0.87098502
N   -1.70429802 0.73815169 1.55211457
N   1.67543462 -1.4161687 -0.90226629
N   -2.56460515 0.16573802 -0.50866838
C   1.9824141 0.3330014 0.6883623
C   -0.50272871 1.34110251 -0.50005003
C   0.70898741 -0.03103863 1.31448169
C   -0.38440507 1.10014247 0.94597934
C   2.82830549 1.39353259 1.25002325
C   0.48140266 1.99467586 -1.28270438
C   2.43893936 -0.35815865 -0.48548543
C   -1.58197059 0.696601 -1.2456843
C   0.68775187 -2.0957777 -0.19226557
C   -2.71764111 0.16426812 0.90889233
H   0.8542892 -0.00851141 2.45232032
H   -0.02418046 1.99059373 1.55425481
H   3.73040592 1.53816589 0.75366794
H   2.42426014 2.33355322 1.32071167
H   3.18985506 1.15418256 2.28665114
H   0.03621738 2.70880157 -1.96138407
H   1.27682846 2.40170662 -0.7653885
H   1.00793446 1.28470253 -1.96529312
H   -0.62429049 -1.75580328 1.3100245
H   -1.64602456 0.68451894 2.57676317
H   2.00286835 -1.83256345 -1.8042561
H   -3.36061063 -0.28003906 -1.00022457
*
