! Engrad def2-TZVPPD wB97M-D3BJ 
%pal nprocs 8 end%pal nprocs 64 end 
%tddft 
 Iroot 1 Nroots 3 
sf true 
end 
*xyz 0 3 
O   1.29408974 0.52859716 0.64620519
C   0.66042299 -0.10741344 -0.40036896
C   -0.86201668 -0.27871102 -0.04917457
H   1.07703078 -1.07715421 -0.68856524
H   0.62878644 0.6156323 -1.27129998
H   -1.41590384 -0.45709764 -0.90917714
H   -1.33000303 -0.25988353 0.97031002
*
