! Engrad def2-TZVPPD wB97M-D3BJ 
%pal nprocs 8 end%pal nprocs 64 end 
%tddft 
 Iroot 2 Nroots 3 
sf true 
end 
*xyz 0 3 
O   1.26512882 0.73036527 0.50261806
C   -0.04139544 0.33790252 0.19086694
C   0.005758 -0.96246911 -0.54474118
H   -0.60630177 1.10361514 -0.30088377
H   -0.71155576 0.25737621 1.12092097
H   -0.77265692 -1.68435529 -0.55492493
H   1.04094558 -1.08340802 -0.87404738
*
