! Engrad def2-TZVPPD wB97M-D3BJ 
%pal nprocs 8 end%pal nprocs 64 end 
%tddft 
 Iroot 2 Nroots 3 
sf true 
end 
*xyz 0 3 
O   3.34516314 0.61215413 -0.22607115
O   -0.53558925 1.15400073 -2.46913468
O   0.56124576 -2.87732519 -0.93947458
O   -3.37432729 -1.58078323 -0.11751021
N   0.28997958 -1.58919946 0.89369984
N   -2.17389841 0.09535792 1.03169137
N   1.77676622 -0.90658534 -0.74161023
N   -1.75391703 -0.38560691 -1.26571967
C   1.5691308 0.43310536 1.2968228
C   -0.59277901 1.47122817 -0.208719
C   0.28398032 -0.30696737 1.53139222
C   -0.87922497 0.73428219 1.07461593
C   1.87071318 1.54249493 2.14988477
C   -0.10193945 2.84318523 -0.24341515
C   2.26068703 0.06127578 0.09484147
C   -1.00119371 0.79795158 -1.42201403
C   0.83770767 -1.88771866 -0.3573049
C   -2.48031149 -0.71179917 -0.10582652
H   0.13798645 -0.3793091 2.63218246
H   -0.85673307 1.4363442 1.86619742
H   2.5725027 1.12971553 2.95882088
H   2.40479403 2.32575058 1.6495114
H   1.05742469 2.06358153 2.58481911
H   -0.15673108 3.23313047 -1.26952923
H   -0.66885658 3.48166093 0.4199112
H   0.97264846 2.81107114 0.09954211
H   -0.44927739 -2.20350461 1.15776672
H   -2.58409359 -0.18160406 1.90463298
H   2.26133034 -1.04819595 -1.60601687
H   -1.93727664 -0.93670508 -2.06485416
*
