! Engrad def2-TZVPPD wB97M-D3BJ 
%pal nprocs 8 end%pal nprocs 64 end 
%tddft Nroots 2 Iroot 1 
sf true 
end 
*xyz 0 3 
O   2.14471586 0.14308317 -1.17733601
O   -0.47780384 2.48121817 -2.46697187
O   0.44928279 -3.70171275 0.45229594
O   -2.4138917 -1.2596863 -1.08935676
N   0.44553937 -1.89670025 1.82921971
N   -1.46895588 -0.17887011 0.64207721
N   1.1067222 -1.69029912 -0.38544341
N   -1.05835097 0.45392839 -1.62049102
C   1.05821986 0.37481088 0.93503904
C   -0.05389627 2.36223473 -0.32564169
C   0.5633057 -0.50114911 2.05142831
C   -0.39592188 0.4323562 1.35803545
C   2.02271677 1.46059656 1.35269079
C   -0.95827484 3.29378699 0.3559684
C   1.48272357 -0.36511478 -0.30597352
C   -0.57604855 1.7409772 -1.50141809
C   0.63965872 -2.52052815 0.6348902
C   -1.68244223 -0.38076091 -0.69933729
H   0.8902957 -0.23662942 3.05116671
H   -0.64931915 1.32632997 1.91117802
H   2.3334483 2.049094 0.49381042
H   1.5624666 2.10896108 2.0958778
H   2.90097083 0.99436729 1.81162748
H   -1.9838874 2.92850493 0.52368502
H   -0.55367443 3.71503482 1.27223694
H   -1.03319024 4.10553216 -0.37462138
H   0.06501803 -2.48835887 2.54935099
H   -1.97340815 -0.88269675 1.16736556
H   1.35894332 -2.18238651 -1.22994443
H   -1.27581166 0.20496622 -2.56712636
*
