7
Properties=species:S:1:pos:R:3:REF_forces:R:3 REF_energy=-4183.959906505444 pbc="F F F"
O        0.94073519       1.18463405       0.07246512       0.66302865       5.53688700       1.53763915
C        0.89133206       0.03844573      -0.30728223      -0.08398073      -5.29940737      -1.85224118
C       -0.31721953      -0.71371617       0.20775901      -0.08194104      -0.67614927      -0.20839191
H       -0.01733736      -1.59785555       0.77363912       0.00859489       0.12383966       0.17639295
H        1.64347916      -0.42342046      -0.96332994      -0.20046732       0.26555434       0.25759398
H       -0.93400980      -1.07216156      -0.61875706      -0.12235644       0.18187336       0.00802485
H       -0.88508752      -0.03885685       0.83550598      -0.18722965      -0.12192907       0.08362498
7
Properties=species:S:1:pos:R:3:REF_forces:R:3 REF_energy=-4180.858205472489 pbc="F F F"
O        0.36697830       0.93006151      -0.00034549       4.66141413       3.64945598       0.00006075
C        0.73512331      -0.36662052      -0.00013009       1.48569716       2.75863279      -0.00702395
C       -0.67074552      -0.54436929      -0.00014532      -5.88648549      -5.45801527       0.00901504
H        1.26935612      -0.70419199       0.89325993      -0.29769267      -0.19154211       0.47420505
H        1.26970853      -0.70459329      -0.89316151      -0.29163637      -0.19313809      -0.47295823
H       -1.21718309      -0.56687523      -0.92805540       0.16422215      -0.28139369       0.04426078
H       -1.21591694      -0.56540603       0.92857788       0.16215722      -0.28322712      -0.04726847
7
Properties=species:S:1:pos:R:3:REF_forces:R:3 REF_energy=-4183.955346560452 pbc="F F F"
O        1.21275013       1.10382136      -0.12595508       1.52446483       5.39978999      -1.88721410
C        0.92124084       0.00639586       0.27309707      -0.88031357      -5.38426581       2.33185118
C       -0.32279623      -0.68650096      -0.20614487      -0.25206353      -0.39898311       0.04533922
H        1.55645695      -0.52616327       1.00313439      -0.04572265       0.33283430      -0.22264202
H       -0.06260412      -1.63846739      -0.67127938      -0.08250230       0.02984471      -0.19564239
H       -0.84431857      -0.05207235      -0.91484931      -0.07281853      -0.07123345      -0.01030475
H       -0.96918682      -0.91698787       0.64199719      -0.18138898       0.10409362      -0.05944969
7
Properties=species:S:1:pos:R:3:REF_forces:R:3 REF_energy=-4183.419932600551 pbc="F F F"
O        0.74773117       1.00554621      -0.00016844       1.70881084       2.20270442      -0.00032424
C        0.76885136      -0.33289692      -0.00010218      -0.44802859      -1.38833234      -0.00139975
C       -0.64444538      -0.59649606       0.00006171      -2.16629261      -1.61369965       0.00229689
H        1.26471237      -0.76567671       0.88184191       0.38854450       0.38502084      -0.05287612
H        1.26454650      -0.76589695      -0.88206149       0.38859711       0.38579953       0.05339166
H       -1.20430853      -0.53543131      -0.92342634       0.06120753       0.01211281       0.08308460
H       -1.20376409      -0.53485585       0.92385483       0.06007558       0.01200261      -0.08389638
7
Properties=species:S:1:pos:R:3:REF_forces:R:3 REF_energy=-4181.404674011458 pbc="F F F"
O        0.23349256       0.88343913      -0.00014597       3.57012353       6.26439665      -0.00028378
C        0.72637427      -0.38428963       0.00003023      -0.19607552      -1.68855096      -0.00245240
C       -0.68637426      -0.50725431      -0.00013592      -3.77952094      -5.57025440       0.00403101
H        1.26613277      -0.68486416       0.89935442       0.24317689       0.41800243       0.01489373
H        1.26617754      -0.68505243      -0.89923053       0.24356739       0.41848191      -0.01452450
H       -1.22757293      -0.59306405      -0.92709896      -0.03643464       0.08042042       0.02347345
H       -1.22706677      -0.59217819       0.92722672      -0.03853639       0.08039949      -0.02495646
7
Properties=species:S:1:pos:R:3:REF_forces:R:3 REF_energy=-4181.228320003886 pbc="F F F"
O        0.20822915       0.87343013      -0.00013093       3.56603754       6.43593932      -0.00024715
C        0.72532194      -0.38842773       0.00003469      -0.16912759      -1.73778225      -0.00199565
C       -0.68990280      -0.49947431      -0.00010740      -3.75658338      -5.66868679       0.00291766
H        1.26536939      -0.68140458       0.90080794       0.23590361       0.41661518       0.01936181
H        1.26539664      -0.68153142      -0.90069973       0.23624010       0.41673474      -0.01900955
H       -1.23004774      -0.59891472      -0.92653012      -0.05257177       0.06879839       0.01316146
H       -1.22968353      -0.59814696       0.92662554      -0.05414070       0.06870356      -0.01413725
7
Properties=species:S:1:pos:R:3:REF_forces:R:3 REF_energy=-4183.920257807078 pbc="F F F"
O        1.34054420       1.06321883      -0.08648489       1.94086413       5.28688878      -1.84831495
C        0.92808822      -0.00585333       0.27497041      -1.34930383      -5.37530731       2.35322418
C       -0.31540488      -0.67604618      -0.22624010      -0.28643665      -0.27470061      -0.03456154
H        1.48524257      -0.57764389       1.04307849       0.05265585       0.35536695      -0.19213454
H       -0.05374470      -1.64774297      -0.64635567      -0.13483669      -0.01388397      -0.21065924
H       -0.81305788      -0.06542562      -0.97343682       0.00025682      -0.03000801       0.01817092
H       -0.98441811      -0.86326116       0.61446859      -0.22544592       0.06243008      -0.09008798
7
Properties=species:S:1:pos:R:3:REF_forces:R:3 REF_energy=-4181.750638972 pbc="F F F"
O        0.28540066       0.90279038      -0.00029389       3.48329220       5.83804283      -0.00310533
C        0.72925228      -0.37686315      -0.00004029      -0.25197900      -1.62663068      -0.00427012
C       -0.67969328      -0.52268498      -0.00005732      -3.72195533      -5.23913610       0.00723919
H        1.26752564      -0.69210632       0.89679512       0.26008628       0.42111644       0.00686189
H        1.26767141      -0.69235044      -0.89670110       0.25385065       0.41208622      -0.00509189
H       -1.22288537      -0.58183172      -0.92782346      -0.00772427       0.12816242       0.04233311
H       -1.22231783      -0.58073804       0.92812094      -0.01381348       0.06590126      -0.04396015
7
Properties=species:S:1:pos:R:3:REF_forces:R:3 REF_energy=-4183.934356354864 pbc="F F F"
O        1.29947039       1.07735796      -0.09698666       1.81028490       5.32969196      -1.85765109
C        0.92515318      -0.00225371       0.27643177      -1.19888097      -5.38771382       2.34942097
C       -0.31745736      -0.67890319      -0.22089545      -0.28204828      -0.31933976      -0.01173745
H        1.50669228      -0.56244393       1.03335211       0.01989804       0.35018076      -0.20354128
H       -0.05519202      -1.64373724      -0.65677260      -0.11785658       0.00167984      -0.20585955
H       -0.82162570      -0.05923788      -0.95574605      -0.02198662      -0.04351789       0.00879095
H       -0.98113278      -0.88176277       0.62061688      -0.20928653       0.07621421      -0.07952408
7
Properties=species:S:1:pos:R:3:REF_forces:R:3 REF_energy=-4183.437570130697 pbc="F F F"
O        1.76779652       0.87672718       0.06877774       2.87844125       4.40347126      -1.19776323
C        0.98616712      -0.02638098       0.18075879      -2.61109936      -4.83635466       1.72799965
C       -0.30275335      -0.66846360      -0.25523821      -0.14579973       0.18692867      -0.23646507
H        1.32993676      -0.76404476       0.96294923       0.45662238       0.32908445       0.06033401
H       -0.02841597      -1.66985693      -0.58138067      -0.39403206      -0.15923088      -0.26095995
H       -0.88333065      -0.16699378      -1.02863690       0.28797624       0.17415956       0.07538657
H       -0.89426899      -0.76957631       0.65277002      -0.46252681      -0.08796578      -0.16610262
7
Properties=species:S:1:pos:R:3:REF_forces:R:3 REF_energy=-4183.617563970244 pbc="F F F"
O        0.96210627       1.00112642       0.19300622       1.30254416       1.44164979       0.52258803
C        0.78320076      -0.30464029       0.01305738      -0.24166086      -1.73067817      -0.75517970
C       -0.63304606      -0.58407970       0.00753684      -1.97520351      -0.45412857      -0.00626953
H        1.27263918      -0.96328225       0.77020993       0.40643968       0.71928994      -0.04991922
H        1.21848750      -0.65167243      -0.94498597       0.38184494       0.23662348       0.21280784
H       -1.18012301      -0.87427542      -0.88219566       0.15553826      -0.09563407       0.15882799
H       -1.20818753      -0.20497689       0.84337126      -0.03160156      -0.11929744      -0.08439566
7
Properties=species:S:1:pos:R:3:REF_forces:R:3 REF_energy=-4180.705072776809 pbc="F F F"
O        0.13462619       0.84240168      -0.00008494       3.28696517       6.80514622      -0.00003775
C        0.72412126      -0.40241432       0.00002921      -0.09883379      -2.05016550      -0.00078341
C       -0.70147080      -0.47631501      -0.00004730      -3.38034853      -5.69669424       0.00091358
H        1.26349758      -0.67173423       0.90567513       0.20007314       0.41324525       0.03467644
H        1.26350315      -0.67177102      -0.90560892       0.20024263       0.41309101      -0.03454109
H       -1.23858627      -0.61722527      -0.92411246      -0.10134826       0.05931415      -0.01060749
H       -1.23847872      -0.61679695       0.92414929      -0.10199823       0.05926792       0.01034209
7
Properties=species:S:1:pos:R:3:REF_forces:R:3 REF_energy=-4181.22826634453 pbc="F F F"
O        0.42452842       0.94673581      -0.00029255       4.14875979       3.36806897      -0.00203810
C        0.73998724      -0.36048110      -0.00002537       1.08641877       2.21907840       0.00361405
C       -0.66509647      -0.55730394       0.00009972      -5.05465535      -4.74266286      -0.00027158
H        1.27034736      -0.71315991       0.89121114      -0.25361675      -0.14409655       0.47301560
H        1.27008559      -0.71360031      -0.89124942      -0.25805739      -0.14250125      -0.47447486
H       -1.21345302      -0.55748936      -0.92761140       0.16478638      -0.27791882       0.03947582
H       -1.21335549      -0.55718285       0.92786788       0.16356359      -0.27713343      -0.03935424
7
Properties=species:S:1:pos:R:3:REF_forces:R:3 REF_energy=-4180.327008265131 pbc="F F F"
O        0.04052117       0.80026645      -0.00004974       1.01201309       2.61827576      -0.00037192
C        0.72887055      -0.42655939       0.00014334      -0.00437604      -1.40787123      -0.00447155
C       -0.71981541      -0.44732961      -0.00015815      -1.01306043      -2.94330529       0.00517800
H        1.26369013      -0.65987140       0.91392087       0.14288255       0.44832262       0.38873940
H        1.26339257      -0.66036675      -0.91372848       0.14522266       0.45036098      -0.38772095
H       -1.25378105      -0.64263933      -0.91950956      -0.14038234       0.42087979      -0.43722002
H       -1.25342330      -0.64296103       0.91938172      -0.14237226       0.42242872       0.43592267
7
Properties=species:S:1:pos:R:3:REF_forces:R:3 REF_energy=-4183.9666142882115 pbc="F F F"
O        1.01938759       1.17589306      -0.07019460       0.91062439       5.55238445      -1.64395160
C        0.88932630       0.03801817       0.30850201      -0.30757202      -5.39624281       2.02937155
C       -0.30965188      -0.71175632      -0.21663193      -0.15102189      -0.55888754       0.12121660
H        1.59649180      -0.44665548       1.00025459      -0.14345994       0.29830933      -0.24418118
H        0.00386149      -1.60854485      -0.75401704      -0.03188528       0.08234247      -0.18651192
H       -0.86552200      -0.05404969      -0.87432707      -0.13949905      -0.10764149      -0.05332757
H       -0.94276218      -1.04793606       0.60641403      -0.14017311       0.14745667      -0.02662517
7
Properties=species:S:1:pos:R:3:REF_forces:R:3 REF_energy=-4183.295838679824 pbc="F F F"
O        0.67843200       0.99794166      -0.00020129       1.92275513       2.57752707      -0.00065921
C        0.76253753      -0.33805614      -0.00010035      -0.45530560      -1.40092221      -0.00057250
C       -0.64783849      -0.59213739       0.00010821      -2.33449698      -2.08777504       0.00123147
H        1.26737367      -0.75430047       0.88354806       0.37530607       0.39662133      -0.04638065
H        1.26713083      -0.75459988      -0.88375679       0.37543676       0.39731489       0.04630743
H       -1.20511130      -0.53715099      -0.92436370       0.05470942       0.05670611       0.07983420
H       -1.20475881      -0.53665948       0.92476586       0.05426474       0.05668520      -0.08011286
7
Properties=species:S:1:pos:R:3:REF_forces:R:3 REF_energy=-4180.541851084244 pbc="F F F"
O        0.11068046       0.83180749      -0.00005222       2.92700042       6.66052357       0.00006310
C        0.72462055      -0.40756928       0.00007913      -0.04617812      -2.23847226      -0.00292495
C       -0.70567435      -0.46886099      -0.00011546      -3.03090079      -5.60122214       0.00330763
H        1.26326480      -0.66867722       0.90751643       0.17717346       0.43014200       0.05015679
H        1.26314790      -0.66891716      -0.90738963       0.17807628       0.43115280      -0.04948010
H       -1.24207572      -0.62340737      -0.92306164      -0.10080908       0.15914502      -0.01897911
H       -1.24183361      -0.62325067       0.92302338      -0.10235653       0.15959368       0.01789257
7
Properties=species:S:1:pos:R:3:REF_forces:R:3 REF_energy=-4183.81205452742 pbc="F F F"
O        1.49772385       1.01347149      -0.04839563       2.38110399       5.07880982      -1.70556341
C        0.94587428      -0.01056279       0.24389057      -1.86459453      -5.29634082       2.25402906
C       -0.30806693      -0.67269100      -0.23627216      -0.27423005      -0.11564186      -0.12082650
H        1.42618162      -0.63514146       1.03134586       0.19643176       0.37146824      -0.12391411
H       -0.04181977      -1.66258702      -0.60645874      -0.22819247      -0.07045271      -0.22801931
H       -0.82489845      -0.10948890      -1.00909922       0.11077502       0.04473193       0.05279108
H       -0.96032828      -0.81669264       0.62498933      -0.30808622       0.00140513      -0.12627285
7
Properties=species:S:1:pos:R:3:REF_forces:R:3 REF_energy=-4183.599925542965 pbc="F F F"
O        0.89168756       1.01262792       0.00011968       1.28063839       1.53549857       0.00142677
C        0.78191453      -0.32321474      -0.00013152      -0.37728228      -1.36226195      -0.00319777
C       -0.63811012      -0.60091122       0.00003315      -1.90053671      -0.74217726       0.00281243
H        1.25667012      -0.78944147       0.87867961       0.41426483       0.35959191      -0.06644660
H        1.25667773      -0.78892348      -0.87916508       0.41403844       0.35799467       0.06652452
H       -1.20374566      -0.53556540      -0.92153506       0.08396476      -0.07589584       0.08884953
H       -1.20290393      -0.53374555       0.92199922       0.08171400      -0.07583218      -0.08982897
7
Properties=species:S:1:pos:R:3:REF_forces:R:3 REF_energy=-4183.967513128892 pbc="F F F"
O        0.99433311       1.12154756       0.24028484       1.07845237       5.04184452       2.35483389
C        0.88314560       0.05116573      -0.31162431      -0.66936495      -4.74254032      -2.82496727
C       -0.32982422      -0.71542421       0.18131463       0.11325872      -0.73600264      -0.03748285
H       -0.00283402      -1.50865883       0.85687794      -0.12967823       0.04129706       0.26575696
H        1.58638309      -0.33597842      -1.06228703      -0.20831535       0.22283097       0.29324244
H       -0.88362065      -1.20137661      -0.62345121       0.08360186       0.26619975      -0.08422110
H       -0.96092647      -0.01954951       0.71888513      -0.26075326      -0.08434572       0.03554963
7
Properties=species:S:1:pos:R:3:REF_forces:R:3 REF_energy=-4183.752575697749 pbc="F F F"
O        1.55386569       0.99019043      -0.08950711       2.46434279       4.93934652      -1.76513261
C        0.96037902      -0.00969780       0.20310575      -1.97640380      -5.20096856       2.31142076
C       -0.31302190      -0.67501126      -0.21906828      -0.26633875      -0.07022862      -0.13583350
H        1.43679405      -0.64484121       0.98822552       0.24764998       0.37529691      -0.10626238
H       -0.05563337      -1.67443311      -0.56893424      -0.27143099      -0.08770721      -0.22402319
H       -0.86621068      -0.13935285      -0.98690735       0.15457234       0.07646565       0.05350319
H       -0.92726312      -0.79423186       0.67308571      -0.34080694      -0.02119745      -0.12826309
7
Properties=species:S:1:pos:R:3:REF_forces:R:3 REF_energy=-4183.862446791176 pbc="F F F"
O        1.43230255       1.03879524      -0.05707504       2.19389659       5.20085636      -1.74327331
C        0.93827620      -0.00869269       0.25748974      -1.64082373      -5.36762523       2.27164724
C       -0.31064078      -0.67334496      -0.23258309      -0.28666984      -0.17977005      -0.09194719
H        1.45315251      -0.61756727       1.03170717       0.13869996       0.37028405      -0.15084879
H       -0.04493914      -1.65275530      -0.63099602      -0.19249985      -0.04504411      -0.21958646
H       -0.82344379      -0.08662090      -0.98976405       0.06955089       0.01498674       0.04088279
H       -0.96706496      -0.84278411       0.62122129      -0.27491681       0.02390135      -0.11187313
7
Properties=species:S:1:pos:R:3:REF_forces:R:3 REF_energy=-4183.569114844107 pbc="F F F"
O        1.68980019       0.92651620       0.03453871       2.77057079       4.65042554      -1.35886507
C        0.97269106      -0.01975908       0.20126746      -2.43168562      -5.02029010       1.89388872
C       -0.30213800      -0.67011955      -0.25155575      -0.19440395       0.08758275      -0.19835828
H        1.35569977      -0.72332366       0.98961404       0.38125100       0.35190650       0.00065761
H       -0.02717913      -1.66968704      -0.58468278      -0.34768769      -0.13339648      -0.25239395
H       -0.86198448      -0.15544330      -1.03043246       0.24167081       0.14316979       0.07231385
H       -0.91552391      -0.78171978       0.64125079      -0.41781315      -0.06634905      -0.16113773
7
Properties=species:S:1:pos:R:3:REF_forces:R:3 REF_energy=-4182.373959366536 pbc="F F F"
O        0.39528840       0.93858810      -0.00035003       3.06730405       4.77058854      -0.00025383
C        0.73740114      -0.36344695      -0.00016963      -0.36798649      -1.54030842       0.00001862
C       -0.66801227      -0.55104849      -0.00019090      -3.33252055      -4.28041594       0.00756488
H        1.26976140      -0.70852442       0.89217361       0.29560450       0.41814758      -0.01130095
H        1.27021746      -0.70896950      -0.89207428       0.29660943       0.42055460       0.00991571
H       -1.21555899      -0.56246400      -0.92792600       0.01937582       0.08826649       0.05961917
H       -1.21397830      -0.56086896       0.92853722       0.01733769       0.12292137      -0.06555781
7
Properties=species:S:1:pos:R:3:REF_forces:R:3 REF_energy=-4183.520705834657 pbc="F F F"
O        0.81900173       1.01052482       0.00022626       1.49939130       1.85917739       0.00113166
C        0.77535164      -0.32785209      -0.00001717      -0.42604411      -1.37713996      -0.00555916
C       -0.64132356      -0.59922173      -0.00005265      -2.01889006      -1.16774826       0.00513724
H        1.26129255      -0.77768545       0.88009377       0.40029608       0.37290988      -0.05939205
H        1.26105526      -0.77715245      -0.88057534       0.40087631       0.37270139       0.06063878
H       -1.20402576      -0.53555146      -0.92258619       0.07120403      -0.03169704       0.08593458
H       -1.20314944      -0.53352025       0.92291132       0.06818198      -0.03202427      -0.08792115
7
Properties=species:S:1:pos:R:3:REF_forces:R:3 REF_energy=-4180.420570042232 pbc="F F F"
O        0.08703698       0.82119148      -0.00004901       1.22010121       3.88035780      -0.00019861
C        0.72545926      -0.41335719       0.00007387       0.25661948      -2.21754573      -0.00236967
C       -0.71014754      -0.46151099      -0.00010048      -1.65035953      -3.49397066       0.00299302
H        1.26312972      -0.66570196       0.90947203       0.14558138       0.51634337       0.18763391
H        1.26300140      -0.66599183      -0.90934860       0.14652048       0.51753692      -0.18715855
H       -1.24561679      -0.62973397      -0.92197354      -0.05771900       0.39566907      -0.18555254
H       -1.24540306      -0.62971941       0.92192573      -0.05905157       0.39654389       0.18461075
7
Properties=species:S:1:pos:R:3:REF_forces:R:3 REF_energy=-4183.946085322337 pbc="F F F"
O        1.25384958       1.09380336      -0.09841657       1.66316317       5.38521569      -1.83038806
C        0.92176426       0.00123016       0.27936528      -1.03356929      -5.41096589       2.30452194
C       -0.31919889      -0.68195634      -0.21671483      -0.26819118      -0.36009972       0.00923286
H        1.53000999      -0.54998293       1.02012721      -0.01355958       0.34367212      -0.21181122
H       -0.05483411      -1.63608646      -0.67476694      -0.10101967       0.01753373      -0.20067609
H       -0.83186893      -0.04986541      -0.93446129      -0.04699485      -0.05826247      -0.00046827
H       -0.97572386      -0.90719163       0.62486713      -0.19412472       0.09081049      -0.06812918
7
Properties=species:S:1:pos:R:3:REF_forces:R:3 REF_energy=-4181.396509906169 pbc="F F F"
O        0.45409864       0.95462743      -0.00031104       3.89895410       3.20654258      -0.00211286
C        0.74251162      -0.35747034      -0.00002611       0.91784289       1.97624416       0.00421885
C       -0.66256892      -0.56318256       0.00010399      -4.66937370      -4.36957113      -0.00055465
H        1.27056375      -0.71783036       0.89018233      -0.23713196      -0.12408020       0.47213679
H        1.27027334      -0.71828810      -0.89022928      -0.23976690      -0.12377961      -0.47392656
H       -1.21196899      -0.55368870      -0.92732459       0.16418349      -0.28049126       0.03649655
H       -1.21184128      -0.55340757       0.92760470       0.16353077      -0.28056827      -0.03615904
7
Properties=species:S:1:pos:R:3:REF_forces:R:3 REF_energy=-4183.632091029847 pbc="F F F"
O        0.92873379       1.01247996       0.01318576       1.17055559       1.39025759       0.02957022
C        0.78511620      -0.32065191       0.00070195      -0.35541711      -1.36663876      -0.03627084
C       -0.63696583      -0.60068718       0.00050488      -1.82980314      -0.54125167      -0.00371225
H        1.25614862      -0.80574375       0.87225921       0.42068756       0.36383151      -0.06720444
H        1.25176294      -0.78471728      -0.88389544       0.41885603       0.34318161       0.07339121
H       -1.20267786      -0.55866431      -0.92279530       0.09175269      -0.09850205       0.09535972
H       -1.20333358      -0.51201761       0.92003894       0.08003036      -0.09215394      -0.09031576
7
Properties=species:S:1:pos:R:3:REF_forces:R:3 REF_energy=-4183.224382978081 pbc="F F F"
O        0.64461189       0.99327038      -0.00031022       2.03521662       2.77848174      -0.00110219
C        0.75944814      -0.34069788      -0.00011400      -0.45442023      -1.40291993       0.00025246
C       -0.64965963      -0.58928815       0.00011216      -2.42630322      -2.33863056       0.00105777
H        1.26835008      -0.74868280       0.88445259       0.36807650       0.40188634      -0.04257826
H        1.26816755      -0.74915186      -0.88456854       0.36825197       0.40244541       0.04231758
H       -1.20573926      -0.53835581      -0.92479328       0.05193152       0.07810329       0.07737961
H       -1.20538006      -0.53819639       0.92522130       0.05144785       0.07819867      -0.07741421
7
Properties=species:S:1:pos:R:3:REF_forces:R:3 REF_energy=-4183.146176042784 pbc="F F F"
O        0.61133788       0.98802597      -0.00029199       2.15183784       2.99077761      -0.00103187
C        0.75643432      -0.34337963      -0.00009415      -0.45064638      -1.40271263       0.00020278
C       -0.65156945      -0.58604926       0.00011758      -2.52453245      -2.60393553       0.00109968
H        1.26918196      -0.74326261       0.88534299       0.36064821       0.40668976      -0.03895047
H        1.26894717      -0.74369238      -0.88547304       0.36085860       0.40729319       0.03866051
H       -1.20644480      -0.54008441      -0.92527077       0.04936759       0.10043216       0.07521958
H       -1.20614440      -0.53981206       0.92566938       0.04905136       0.10045542      -0.07531965
7
Properties=species:S:1:pos:R:3:REF_forces:R:3 REF_energy=-4180.876635768353 pbc="F F F"
O        0.15883014       0.85288596      -0.00010104       3.45000287       6.75848385      -0.00011668
C        0.72415586      -0.39746727       0.00003152      -0.10069417      -1.93708182      -0.00093986
C       -0.69744200      -0.48396327      -0.00005835      -3.58003494      -5.81207169       0.00137541
H        1.26401744      -0.67483984       0.90395818       0.20314337       0.41012561       0.03088475
H        1.26402819      -0.67488351      -0.90388220       0.20334017       0.40995645      -0.03075931
H       -1.23553192      -0.61102380      -0.92503285      -0.08407035       0.08702127      -0.00603479
H       -1.23537558      -0.61048257       0.92508474      -0.08489329       0.08700727       0.00563893
7
Properties=species:S:1:pos:R:3:REF_forces:R:3 REF_energy=-4180.272305633174 pbc="F F F"
O        0.01728045       0.78982862      -0.00004412       0.99528219       2.62919034       0.00014462
C        0.73135627      -0.43375712       0.00012084      -0.36172809      -1.43164167      -0.00330383
C       -0.72512804      -0.44055773      -0.00012167      -0.57079570      -2.98315126       0.00251193
H        1.26436275      -0.65744896       0.91616796       0.13267552       0.46424859       0.44634796
H        1.26416078      -0.65751627      -0.91605575       0.13392542       0.46479609      -0.44542463
H       -1.25804466      -0.64937612      -0.91827072      -0.16441332       0.43360922      -0.47163086
H       -1.25781995      -0.64929747       0.91820347      -0.16595920       0.43426507       0.47139768
7
Properties=species:S:1:pos:R:3:REF_forces:R:3 REF_energy=-4183.719653953196 pbc="F F F"
O        1.58091242       0.98113111      -0.04220413       2.54325632       4.89892941      -1.62504763
C        0.95978638      -0.01204022       0.21296972      -2.09163882      -5.19180332       2.17861093
C       -0.30799406      -0.67325245      -0.23336576      -0.24953507      -0.03889435      -0.15292391
H        1.40979477      -0.66563685       1.00050778       0.27696746       0.37443211      -0.08268684
H       -0.04156554      -1.67009522      -0.58340090      -0.28550352      -0.09554422      -0.23312461
H       -0.85477551      -0.13767203      -1.00612376       0.17013162       0.08972594       0.06064264
H       -0.93121809      -0.79771858       0.65161706      -0.35703896      -0.03037462      -0.14027192
7
Properties=species:S:1:pos:R:3:REF_forces:R:3 REF_energy=-4180.371951878666 pbc="F F F"
O        0.06360989       0.81062803      -0.00004813       0.74724678       2.51622856       0.00695534
C        0.72680097      -0.41964347       0.00006286       0.24729928      -1.71852687      -0.00818493
C       -0.71488250      -0.45432904      -0.00007957      -1.10285538      -2.65011176      -0.00570307
H        1.26323638      -0.66282153       0.91154314       0.14635718       0.48931366       0.31599377
H        1.26311261      -0.66313440      -0.91143065       0.14841808       0.48591877      -0.31368297
H       -1.24941468      -0.63615353      -0.92082018      -0.09208002       0.43581784      -0.35752729
H       -1.24923592      -0.63623585       0.92077254      -0.09215388       0.43920232       0.36200563
7
Properties=species:S:1:pos:R:3:REF_forces:R:3 REF_energy=-4181.579362815296 pbc="F F F"
O        0.25917297       0.89325751      -0.00017198       3.54328999       6.06286187      -0.00035660
C        0.72771820      -0.38035759       0.00002451      -0.22848098      -1.64486223      -0.00345216
C       -0.68301514      -0.51500549      -0.00018846      -3.76455123      -5.43357964       0.00560281
H        1.26692517      -0.68843502       0.89798394       0.25137959       0.41935567       0.01083202
H        1.26699830      -0.68876628      -0.89781581       0.25195263       0.42046228      -0.01024854
H       -1.22530753      -0.58734226      -0.92754643      -0.02220947       0.09031663       0.03256326
H       -1.22456329      -0.58638368       0.92771423      -0.02517589       0.09026802      -0.03480688
7
Properties=species:S:1:pos:R:3:REF_forces:R:3 REF_energy=-4183.48275873147 pbc="F F F"
O        1.74273372       0.89401049       0.04555394       2.84744893       4.48620414      -1.28346007
C        0.98245231      -0.02327729       0.18300422      -2.55303625      -4.89384531       1.81461457
C       -0.30324555      -0.67005472      -0.25101717      -0.16588323       0.14796500      -0.22334808
H        1.34175716      -0.74586932       0.96984088       0.43230570       0.33785446       0.03762581
H       -0.03000541      -1.67293152      -0.57448991      -0.38034024      -0.14922293      -0.25527371
H       -0.87962407      -0.16881069      -1.02731951       0.27504539       0.16578578       0.07211240
H       -0.89934586      -0.76940958       0.65442755      -0.44774408      -0.08208268      -0.16249096
7
Properties=species:S:1:pos:R:3:REF_forces:R:3 REF_energy=-4183.684924288347 pbc="F F F"
O        1.59917800       0.97826921       0.00742806       2.58336810       4.88026674      -1.47512497
C        0.95795030      -0.01165531       0.22210113      -2.16519111      -5.19589541       2.01792538
C       -0.30215611      -0.67333130      -0.24668702      -0.23894036      -0.00723314      -0.16452729
H        1.38827843      -0.68479605       1.00612657       0.30185854       0.36884271      -0.05292449
H       -0.02296244      -1.66497634      -0.60125293      -0.30019914      -0.10350094      -0.24192216
H       -0.84887995      -0.13808027      -1.02004779       0.19236488       0.10553387       0.06549059
H       -0.93118930      -0.80930383       0.63233196      -0.37100274      -0.04322914      -0.14827668
7
Properties=species:S:1:pos:R:3:REF_forces:R:3 REF_energy=-4183.96167119768 pbc="F F F"
O        1.09370341       1.16601131      -0.05929421       1.12279538       5.56910246      -1.63699998
C        0.89609788       0.03278340       0.29743536      -0.48889630      -5.49269919       2.06965622
C       -0.30745705      -0.70682732      -0.21894309      -0.20854498      -0.45952841       0.05282273
H        1.57550886      -0.48411569       0.99674409      -0.08878829       0.32658788      -0.22221909
H        0.00376609      -1.61364521      -0.73985064      -0.06813170       0.04813845      -0.19331293
H       -0.86436123      -0.06088013      -0.88869643      -0.09192456      -0.08667458      -0.02587360
H       -0.93869450      -1.02409746       0.61260493      -0.17065350       0.11356458      -0.04444175
7
Properties=species:S:1:pos:R:3:REF_forces:R:3 REF_energy=-4182.076389780036 pbc="F F F"
O        0.33924172       0.92124285      -0.00033195       3.29930924       5.31621782      -0.00202972
C        0.73299369      -0.36990222      -0.00009463      -0.31371797      -1.57360873      -0.00385923
C       -0.67360618      -0.53738733      -0.00010950      -3.55955893      -4.80416341       0.00632936
H        1.26883982      -0.70001346       0.89438458       0.27779426       0.42009822      -0.00214920
H        1.26910218      -0.70036752      -0.89428656       0.27532304       0.41827344       0.00295867
H       -1.21894499      -0.57158971      -0.92808867       0.00856219       0.11985528       0.05392821
H       -1.21795024      -0.57024241       0.92852672       0.00369272       0.09269144      -0.05537416
7
Properties=species:S:1:pos:R:3:REF_forces:R:3 REF_energy=-4183.060560400696 pbc="F F F"
O        0.57865540       0.98226040      -0.00030630       2.27209693       3.21428691      -0.00113067
C        0.75348999      -0.34610095      -0.00007772      -0.44457200      -1.39840481       0.00035796
C       -0.65356428      -0.58236608       0.00011924      -2.62944533      -2.88644592       0.00132419
H        1.26981308      -0.73792525       0.88626609       0.35286237       0.41105103      -0.03515680
H        1.26954743      -0.73836632      -0.88638173       0.35317273       0.41152324       0.03473724
H       -1.20728901      -0.54209853      -0.92572590       0.04706451       0.12421144       0.07311650
H       -1.20702829      -0.54182362       0.92610633       0.04671319       0.12430615      -0.07311660
7
Properties=species:S:1:pos:R:3:REF_forces:R:3 REF_energy=-4183.562902935189 pbc="F F F"
O        0.85520434       1.01197196       0.00013675       1.39141552       1.69308573       0.00121525
C        0.77862477      -0.32551116      -0.00012302      -0.40237121      -1.36762828      -0.00413778
C       -0.63965445      -0.60017735      -0.00002466      -1.95981711      -0.95298316       0.00370508
H        1.25903540      -0.78348979       0.87939711       0.40724945       0.36619745      -0.06300808
H        1.25908001      -0.78307701      -0.87982576       0.40700119       0.36548330       0.06358287
H       -1.20396523      -0.53538638      -0.92196088       0.07778559      -0.05393657       0.08656313
H       -1.20300393      -0.53365407       0.92240046       0.07500457      -0.05392010      -0.08804227
7
Properties=species:S:1:pos:R:3:REF_forces:R:3 REF_energy=-4184.030273169586 pbc="F F F"
O        1.20489537       0.79487104       0.67379040       1.70644725       4.89032313       1.18542863
C        0.93562707      -0.36234600       0.44875564      -1.44825661      -5.26375712      -0.86256572
C       -0.37642517      -0.46106285      -0.31751191       0.08326155      -0.19251932      -0.24433196
H        1.56066145      -1.21710541       0.74138247      -0.17900341       0.34151543      -0.09149214
H       -0.19768592      -0.06533326      -1.31551704      -0.22025045       0.14646660      -0.25021874
H       -0.78414153      -1.46742577      -0.41257312       0.39572623       0.02430661       0.29321986
H       -1.09188828       0.18384129       0.18167356      -0.33482576       0.06521752      -0.02175727
7
Properties=species:S:1:pos:R:3:REF_forces:R:3 REF_energy=-4183.648551868721 pbc="F F F"
O        1.63724074       0.95451622      -0.00258523       2.66277548       4.78265092      -1.48994418
C        0.96627013      -0.01641844       0.20778282      -2.27263437      -5.11594317       2.02954722
C       -0.30491291      -0.67123148      -0.24312365      -0.22112266       0.02807180      -0.17461441
H        1.38187171      -0.69566395       0.99654242       0.32946753       0.36133293      -0.03936880
H       -0.03436890      -1.66989258      -0.58359186      -0.31780738      -0.11550545      -0.24338185
H       -0.85683883      -0.14614021      -1.02003705       0.20760942       0.11677132       0.06652370
H       -0.92453451      -0.78829589       0.64501256      -0.38924067      -0.04934014      -0.15003589
1
Properties=species:S:1:pos:R:3 config_type=IsolatedAtom REF_energy=-1028.9771505969138 energy=-1028.9771505969138 free_energy=-1028.9771505969138 dipole="-4.603841731905418e-08 3.016310100213894e-08 2.69880377387559e-08" pbc="F F F"
C        0.00000000       0.00000000       0.00000000
1
Properties=species:S:1:pos:R:3 config_type=IsolatedAtom REF_energy=-13.568778219076226 energy=-13.568778219076226 free_energy=-13.568778219076226 dipole="-0.0012331030238405477 -0.0019389931429228675 -6.989901774337778e-06" pbc="F F F"
H        0.00000000       0.00000000       0.00000000
1
Properties=species:S:1:pos:R:3 config_type=IsolatedAtom REF_energy=-2041.370068087562 energy=-2041.370068087562 free_energy=-2041.370068087562 dipole="2.4871328896500532e-08 1.3758607474659871e-08 -4.233417684510729e-09" pbc="F F F"
O        0.00000000       0.00000000       0.00000000
