! Engrad def2-TZVPPD wB97M-D3BJ 
%pal nprocs 8 end%pal nprocs 64 end 
%tddft 
 Iroot 2 Nroots 3 
sf true 
end 
*xyz 0 3 
O   3.46222586 -0.25772929 -0.04446904
O   -0.26675113 0.77097551 -2.76833043
O   -0.33407203 -2.73894425 -0.79313502
O   -3.54241969 -0.75178745 0.07452418
N   -0.31086102 -1.35030345 0.97001366
N   -2.04470889 0.75996865 0.94979852
N   1.51098603 -1.36287933 -0.50885103
N   -1.90510278 -0.01508645 -1.35535852
C   1.68666927 0.09177413 1.38275677
C   -0.22951522 1.41293906 -0.4251512
C   0.19270648 -0.12184244 1.60056013
C   -0.64073011 1.08148351 0.99195516
C   2.41373355 1.18057624 2.19960138
C   0.73810726 2.52294436 -0.67440692
C   2.31887462 -0.50314253 0.24415802
C   -0.74422615 0.73462306 -1.62194087
C   0.23823498 -1.90843312 -0.15227141
C   -2.55990206 -0.02216996 -0.14073006
H   -0.0231421 -0.1512114 2.65343068
H   -0.44328381 1.97647481 1.60650336
H   3.433565 1.18162349 1.86935203
H   1.89745423 2.13752125 1.9681256
H   2.44804176 0.99324884 3.23261812
H   1.6159916 2.45828864 -0.05352545
H   1.11125406 2.3708732 -1.74037835
H   0.22075807 3.48623951 -0.62513337
H   -1.09872363 -1.92176781 1.29962776
H   -2.53171225 0.53662465 1.81477716
H   1.97733112 -1.99880571 -1.16403324
H   -2.24149036 -0.68991935 -2.00878737
*
