! Engrad wB97M-D3BJ def2-TZVPPD 
%pal nprocs 8 end%pal nprocs 16 end 
%tddft nroots 2 Iroot 1
 sf true 
end 
*xyz 0 3 
O   0.18335325050739 0.86323335788563 -0.00011587997742
C   0.72456665082955 -0.39280727052312 3.624717183e-05
C   -0.69358324081742 -0.49169076765207 -8.257840948e-05
H   1.26464779709197 -0.67806437177246 0.90234069510871
H   1.26466141424854 -0.67814718276658 -0.90224834928315
H   -1.23269026458343 -0.60491025208333 -0.92583832728184
H   -1.23244144828648 -0.60425620477951 0.92590819267135
*
