! Engrad def2-TZVPPD wB97M-D3BJ 
%pal nprocs 8 end%pal nprocs 64 end 
%tddft 
 Iroot 1 Nroots 3 
sf true 
end 
*xyz 0 3 
O   3.25688679 0.89214999 -0.09324643
O   -0.82417246 0.63957676 -2.70405401
O   0.63962316 -2.75498796 -1.03220768
O   -3.49480177 -1.38533737 0.52883335
N   0.22872623 -1.33275989 0.79128142
N   -2.11730236 0.32990655 1.08413146
N   1.90521534 -0.81698476 -0.69536674
N   -2.09493667 -0.6000758 -1.07308042
C   1.55859995 0.48836024 1.32850169
C   -0.53104623 1.21318766 -0.51023508
C   0.27412719 -0.07757178 1.43590815
C   -0.8233688 0.97320801 0.89997872
C   2.13950055 1.41816859 2.28342273
C   0.44062331 2.22258299 -0.8539578
C   2.27441615 0.23764502 0.15858191
C   -1.15898909 0.37999962 -1.49333473
C   0.86996311 -1.72380572 -0.40461381
C   -2.64291499 -0.60322303 0.23001284
H   0.01164118 -0.16803059 2.47840294
H   -0.8340527 1.79391254 1.54533042
H   1.41218798 2.08832645 2.76276294
H   2.54908443 0.85962592 3.11078269
H   2.96122771 2.06156687 2.00936732
H   -0.06948009 2.98558205 -1.38845298
H   0.69990813 2.68085637 0.11349065
H   1.31519861 1.85985195 -1.32804177
H   -0.42796838 -2.01877647 1.06207728
H   -2.49843562 0.29985037 1.9738338
H   2.47325515 -0.98862964 -1.53584019
H   -2.70660545 -1.09759195 -1.76516041
*
