! Engrad def2-TZVPPD wB97M-D3BJ 
%pal nprocs 8 end%pal nprocs 64 end 
%tddft 
 Iroot 1 Nroots 3 
sf true 
end 
*xyz 0 3 
O   3.12554258 0.66424679 -0.70885357
O   -0.47332895 1.38582226 -2.40734597
O   0.4806997 -3.15171169 -0.51228786
O   -2.96360491 -1.79782959 -0.22308699
N   0.11859493 -1.45806181 1.07624305
N   -2.18417103 -0.09353287 0.97119836
N   1.73961665 -1.16044287 -0.64927781
N   -1.62894993 -0.29199346 -1.33625418
C   1.49093489 0.49145118 1.01621291
C   -0.74191385 1.59459312 -0.03072222
C   0.27129078 -0.11448267 1.57439191
C   -1.10033856 0.79971183 1.15470845
C   2.16692475 1.5415024 1.97122097
C   -0.14007645 2.95483819 -0.12396049
C   2.20739895 0.06324894 -0.14614436
C   -0.95612973 0.99595395 -1.36430029
C   0.78727192 -2.04761168 -0.03658588
C   -2.32418967 -0.7898227 -0.20044328
H   0.33084805 -0.10678239 2.66875034
H   -1.31667453 1.41029386 2.02344654
H   2.60239796 0.9005488 2.78679897
H   2.93197981 2.06727131 1.41059397
H   1.43187645 2.15344742 2.48218366
H   -0.72403448 3.60735234 -0.7258179
H   -0.02308403 3.42762237 0.82561877
H   0.83149867 2.86166257 -0.63437482
H   -0.68472333 -1.91399151 1.45916003
H   -2.83137633 -0.30192098 1.65355355
H   1.91378063 -1.33386563 -1.62973317
H   -1.78834781 -0.76737 -2.19676385
*
