! EnGrad wB97M-D3BJ def2-TZVPPD 
%pal nprocs 8 end%pal nprocs 16 end 
%tddft 
 sf true 
 nroots 2 Iroot 2 end 
*xyz 0 3 
O   -0.0879363416131 0.75586542501758 -3.837577214e-05
C   0.78661644130879 -0.51248502409384 2.941854835e-05
C   -0.74310308321484 -0.367534524194 -1.34912904e-05
H   1.29848124658852 -0.6500708647891 0.93634670552761
H   1.29842161824786 -0.6502856963997 -0.93629162554224
H   -1.27514969203709 -0.64691202836792 -0.91057101695109
H   -1.27513018928014 -0.64697728717302 0.91053838547992
*
