! Engrad def2-TZVPPD wB97M-D3BJ 
%pal nprocs 8 end%pal nprocs 64 end 
 %tddft nroots 2 Iroot 2 
sf true 
end 
*xyz 0 3 
O   2.51836094697121 1.23975762846279 -0.42229952288655
O   -0.80570113531787 0.81546112468307 -2.38931243044884
O   0.59586029855045 -2.73216554597413 -1.50855283034095
O   -2.49498860601411 -1.60057354428808 1.07164764430267
N   0.60332225916267 -2.08235085528349 0.67371480429945
N   -1.84622447594691 0.5484576726762 1.44551838754367
N   1.62596812448623 -0.78025389214707 -0.92704309702984
N   -1.69780132531753 -0.3475756218645 -0.66373186865121
C   1.41759895089714 0.06418769012333 1.31890043093222
C   -0.84234685436455 1.87498832290691 -0.26339097083576
C   0.810215594336 -1.09329228713542 1.60660602181903
C   -1.22543419663373 1.69464941383535 1.00509743700733
C   1.69875244153286 1.13534610948556 2.32132753762682
C   -0.17683953124889 3.11367118043073 -0.76840980561111
C   1.91189115193361 0.25905150052843 -0.04451699089038
C   -1.0946741943006 0.79056604903238 -1.21454954777663
C   0.91756895079905 -1.93223096586294 -0.65976014420387
C   -2.05581909161347 -0.55162362716347 0.64711326037954
H   0.43548873310221 -1.31741749733099 2.59393752594873
H   -1.07983270533507 2.45310246169658 1.75868131032001
H   1.38711811873888 2.10521421218058 1.93948256244341
H   1.18466314346454 0.93573342868874 3.25956759033032
H   2.76662126802972 1.20874431232639 2.52038108970645
H   -0.75127833118337 3.54871354922043 -1.58375852887415
H   -0.08070797249499 3.84911699644799 0.02723696991526
H   0.8147620684902 2.88086255142968 -1.14951922683871
H   -0.01477778551508 -2.84751169438874 0.88275918031415
H   -2.09898536752422 0.43610725994037 2.4100403197034
H   1.85067733039208 -0.62014957432845 -1.8970980470585
H   -1.82085780807646 -1.13358635832828 -1.28546906114597
*
