! EnGrad wB97M-D3BJ def2-TZVPPD 
%pal nprocs 8 end%pal nprocs 16 end 
%tddft 
 sf true 
 nroots 2 Iroot 1 end 
*xyz 0 3 
O   0.53246252478905 1.10123561950444 0.21154692229094
C   0.58649344946657 -0.21097201249424 0.01471913349268
C   -0.75448685350188 -0.74295687905916 0.009707259492
H   1.1927415745829 -0.79005339417166 0.75551656196678
H   1.07068521538712 -0.46449982942061 -0.95063654266344
H   -1.22779155450544 -1.1650555003602 -0.8696166498983
H   -1.39790435621831 -0.44609800399857 0.82876331531934
*
