! Engrad def2-TZVPPD wB97M-D3BJ 
%pal nprocs 8 end%pal nprocs 64 end 
%tddft Nroots 2 Iroot 1 
sf true 
end 
*xyz 0 3 
O   3.47524778 0.85806813 -0.6072545
O   -1.2621124 0.20936731 -2.05163337
O   1.42669362 -3.1861335 -1.39409807
O   -3.18310253 -1.01250083 1.99757933
N   0.88471931 -1.92759516 0.36764365
N   -2.10404366 1.08222025 1.74468806
N   2.30010342 -1.06249712 -1.18682484
N   -2.33721229 -0.2956355 -0.07253099
C   1.75652889 0.23465846 0.92570136
C   -1.20918144 1.8512491 -0.35875634
C   0.87423746 -0.8303728 1.18702218
C   -1.7006687 2.16173493 0.94902838
C   2.27960606 1.20364207 1.91812278
C   -0.50962768 2.84260418 -1.18101809
C   2.58810028 0.07734985 -0.31374886
C   -1.53770315 0.56730106 -0.87054784
C   1.52964217 -2.1306193 -0.79955642
C   -2.69285355 -0.1737705 1.31547445
H   0.32387626 -0.91763974 2.08501783
H   -1.64987977 3.11120222 1.40501263
H   3.18806852 1.68057652 1.48903801
H   1.58616665 2.07902489 1.94141425
H   2.55892288 0.84549722 2.88623863
H   -0.96187213 2.73185429 -2.23054663
H   -0.47816466 3.81025168 -0.82059251
H   0.57666932 2.59909988 -1.37772476
H   0.32115192 -2.72353498 0.71564063
H   -2.45281533 1.31600347 2.69239498
H   2.89050074 -1.16409093 -1.95442387
H   -2.52081655 -1.20028774 -0.39125099
*
