! Engrad wB97M-D3BJ def2-TZVPPD 
%pal nprocs 8 end%pal nprocs 16 end 
%tddft nroots 2 Iroot 2
 sf true 
end 
*xyz 0 3 
O   0.7477311673326 1.00554621485707 -0.00016843647075
C   0.76885136360066 -0.33289691933958 -0.00010218058732
C   -0.64444537872364 -0.59649605621392 6.170741637e-05
H   1.26471237335618 -0.76567670530167 0.88184190703671
H   1.26454649706453 -0.76589695223121 -0.88206148830526
H   -1.20430852846194 -0.53543131198183 -0.92342633657398
H   -1.20376409174294 -0.53485585146542 0.92385482748424
*
