! Engrad def2-TZVPPD wB97M-D3BJ 
%pal nprocs 8 end%pal nprocs 64 end 
%tddft Nroots 2 Iroot 1 
sf true 
end 
*xyz 0 3 
O   2.54538125 1.23027038 -0.38845678
O   -0.80470457 0.8647581 -2.40176296
O   0.58698358 -2.66430223 -1.57212401
O   -2.48788271 -1.59342346 1.08091167
N   0.62437371 -2.13284148 0.62756794
N   -1.89027083 0.59536189 1.42451764
N   1.61493399 -0.7447071 -0.91832128
N   -1.70534318 -0.31634496 -0.68319678
C   1.47461671 0.02042912 1.35562165
C   -0.84166821 1.88255777 -0.28782508
C   0.84135388 -1.18961606 1.59663038
C   -1.28811054 1.78417461 1.01382082
C   1.73754367 1.03705669 2.41164154
C   -0.18114532 3.12287597 -0.78583667
C   1.90126792 0.2801426 -0.01457958
C   -1.10625686 0.81084324 -1.22268442
C   0.92136854 -1.91152949 -0.68604181
C   -2.04781826 -0.53083114 0.64900581
H   0.5454483 -1.53750931 2.60873074
H   -1.25904499 2.53864101 1.7251486
H   1.44207793 2.02932412 2.06348573
H   1.20984248 0.82579468 3.35655939
H   2.82252553 1.11666721 2.65185461
H   -0.70304244 3.46727208 -1.67093475
H   -0.24921073 3.92338661 -0.05378296
H   0.85965954 2.91280825 -1.05381953
H   0.03691481 -2.91357291 0.7639259
H   -2.22088557 0.47207697 2.33819842
H   1.70283012 -0.45061559 -1.89439461
H   -1.81355988 -1.0921087 -1.31775866
*
