! EnGrad wB97M-D3BJ def2-TZVPPD 
%pal nprocs 8 end%pal nprocs 16 end 
%tddft 
 sf true 
 nroots 2 Iroot 1 end 
*xyz 0 3 
O   0.68207964005087 1.33062640518368 0.09004579437233
C   0.56318602648471 0.18803799830865 -0.25990527963682
C   -0.4467613802668 -0.80788777301737 0.22183429554986
H   0.07717339195857 -1.67176345692054 0.63206673064448
H   1.25724958537657 -0.21728041879347 -1.02427864102958
H   -1.0262960830011 -1.1629243183741 -0.63090674149456
H   -1.10443118060282 -0.37720843638686 0.97114384159427
*
