! Engrad def2-TZVPPD wB97M-D3BJ 
%pal nprocs 8 end%pal nprocs 64 end 
%tddft 
 Iroot 1 Nroots 3 
sf true 
end 
*xyz 0 3 
O   -0.37058732 0.90231191 0.3035742
C   0.65541467 -0.04038865 0.57914242
C   0.99887287 -0.75231242 -0.66951072
H   0.49084605 -0.81456524 1.34521586
H   1.49620235 0.70366736 0.71693321
H   1.42219956 -1.71235532 -0.88005891
H   1.03765307 -0.18605048 -1.59756096
*
