! Engrad def2-TZVPPD wB97M-D3BJ 
%pal nprocs 8 end%pal nprocs 64 end 
%tddft 
 Iroot 1 Nroots 3 
sf true 
end 
*xyz 0 3 
O   3.00425231 -1.29070132 -2.10397958
O   -2.42316669 1.12811529 -1.49394646
O   -1.34514306 -2.34603936 -1.11467477
O   -2.26473959 0.76538027 3.07249101
N   -0.1853536 -1.30958085 0.43482897
N   -0.35984926 1.3738249 2.02697195
N   0.75221926 -1.64901479 -1.61865503
N   -2.37314573 0.83654624 0.79149605
C   2.15065004 -0.6383712 0.02281056
C   -0.28642098 1.27281225 -0.43216267
C   0.92155594 -0.53418968 0.87721021
C   0.45629091 0.98257323 0.8314435
C   3.44965581 -0.02686663 0.49792021
C   0.43567444 1.65197364 -1.61934853
C   2.06702858 -1.1819932 -1.2988679
C   -1.77460719 1.11146268 -0.49542713
C   -0.34928356 -1.77547346 -0.76261659
C   -1.68064582 0.95378365 2.03081832
H   1.18131463 -0.77366914 1.92229733
H   1.37082356 1.64501137 0.82067611
H   3.63368901 -0.4386702 1.47415554
H   4.17999202 -0.21848292 -0.20111719
H   3.46626799 1.0630181 0.52194483
H   0.17701208 2.65637026 -1.97847373
H   1.46018838 1.50894349 -1.56625958
H   0.03341584 1.10517447 -2.43004972
H   -0.81138139 -1.78434091 1.08929637
H   0.17542204 1.05052802 2.84577349
H   0.58656736 -1.99806391 -2.56581762
H   -3.34544958 0.81859034 0.90066399
*
