! EnGrad wB97M-D3BJ def2-TZVPPD 
%pal nprocs 8 end%pal nprocs 16 end 
%tddft 
 sf true 
 nroots 2 Iroot 1 end 
*xyz 0 3 
O   -0.00900219168809 0.77825507415374 -4.083754986e-05
C   0.73574427597733 -0.44355534947904 4.85237992e-05
C   -0.7313703327218 -0.4319282771346 -4.32054683e-05
H   1.26642238046947 -0.6546736866196 0.91895320441
H   1.26631958344682 -0.65484630907463 -0.91888865507156
H   -1.26300459729412 -0.65580359734448 -0.91693809934657
H   -1.26290911818961 -0.65584785450138 0.91690906922708
*
