7
Coordinates from ORCA-job orca E -153.888634108880
  O           0.02305801874064      0.79655143259603     -0.00004939058070
  C           0.71816743055364     -0.42447490506261      0.00014264636055
  C          -0.72860828152463     -0.46160977400654     -0.00015421351530
  H           1.25567025786177     -0.65459199522709      0.91338575039332
  H           1.25538148843309     -0.65492845481669     -0.91322778541706
  H          -1.26090394370672     -0.65961022073898     -0.91969457002318
  H          -1.26056497035779     -0.65973608274412      0.91959756278237
