30
Coordinates from ORCA-job orca E -908.748819972294
  O           2.25154234050200     -0.18387891000603     -1.18002168131144
  O          -0.19410910707620      2.73370847381410     -2.29453147742992
  O           0.24796054854534     -3.76718664942132      0.69603728206582
  O          -2.20549207299018     -1.10836816726317     -1.32804230053315
  N           0.38265267248092     -1.88056936144741      1.95032810659534
  N          -1.39302658615738     -0.14705788059907      0.54555322331922
  N           1.06973296517164     -1.88116230855248     -0.27201890441405
  N          -0.83175875564089      0.66013052193530     -1.61797409482390
  C           1.26759292141962      0.22377362139025      0.93876569990431
  C          -0.23819098532356      2.59572617946390     -0.11311622394419
  C           0.57902961102207     -0.47617849894428      2.06231555583594
  C          -0.35747610688280      0.44971126752434      1.29859926177040
  C           2.21658818771747      1.34492985122951      1.23943197060550
  C          -1.42718572993569      3.32485868522748      0.36800933125046
  C           1.57940176745675     -0.59499566591517     -0.26626085349566
  C          -0.44187158846913      1.95815834000475     -1.37915420588566
  C           0.53451775745913     -2.59840261210100      0.79643140112843
  C          -1.52175698119696     -0.25061497135396     -0.82064181613151
  H           0.85300245674917     -0.16841314728265      3.06091842165421
  H          -0.54332372095399      1.39964994094545      1.77376861765939
  H           2.38803470093883      1.94558493793425      0.35528112258008
  H           1.81411173171566      1.98798886086703      2.01835909513560
  H           3.16454432797580      0.92981700183583      1.58189195522608
  H          -2.37511861202405      2.78489015884553      0.28867165154308
  H          -1.30133231026136      3.76278764198649      1.35423968882302
  H          -1.48671393951647      4.15139838312410     -0.35412772432548
  H          -0.03590195159855     -2.39095041530691      2.70677606352039
  H          -1.88867998972253     -0.90326072012328      0.99227420403486
  H           1.25455288001928     -2.43242386294585     -1.09539219833649
  H          -0.90872643142395      0.44534930513422     -2.60177117202066
