! Engrad def2-TZVPPD wB97M-D3BJ 
%pal nprocs 8 end%pal nprocs 64 end 
%tddft 
 Iroot 1 Nroots 3 
sf true 
end 
*xyz 0 3 
O   3.16023436 -1.44240555 -1.87460226
O   -2.30057501 1.33965212 -1.65804988
O   -1.21856814 -2.30691387 -1.07206488
O   -2.65382557 0.9290691 2.89051992
N   0.08538435 -1.44638546 0.59740742
N   -0.62857769 1.02097978 2.00940476
N   0.89043587 -1.6612317 -1.59037661
N   -2.5221405 0.99872535 0.58273377
C   2.1973795 -0.56706418 -0.0109241
C   -0.33567156 1.1775581 -0.36916053
C   1.05480597 -0.41807247 0.9744796
C   0.3217812 0.99750726 0.93507376
C   3.49904227 -0.00563286 0.38579359
C   0.46534587 1.66163457 -1.54652353
C   2.11372709 -1.29481866 -1.20190548
C   -1.78227344 1.15065814 -0.60355609
C   -0.18953588 -1.83621774 -0.64313732
C   -1.95919916 0.92827907 1.89460651
H   1.5227018 -0.61541238 1.9310332
H   1.11467198 1.76323923 0.94885602
H   3.77382275 -0.54256177 1.25171364
H   4.29807031 -0.07860731 -0.32030648
H   3.45332386 1.03619982 0.67190814
H   0.00871271 2.63756402 -1.88477462
H   1.51171824 1.74878267 -1.44375614
H   0.35638446 1.16830104 -2.47494586
H   -0.86047037 -1.42974424 0.90508134
H   -0.38043381 1.04104823 2.94998755
H   0.67361179 -2.15992001 -2.4518992
H   -3.50832089 0.90039609 0.47088207
*
