! Engrad def2-TZVPPD wB97M-D3BJ 
%pal nprocs 8 end%pal nprocs 64 end 
%tddft 
 Iroot 1 Nroots 3 
sf true 
end 
*xyz 0 3 
O   3.32622252 1.02770254 -0.11729523
O   -1.0580723 0.7615235 -2.59423526
O   0.66213285 -2.60524387 -1.32889288
O   -3.32082798 -1.67024611 0.52730177
N   0.29844441 -1.48299832 0.65867466
N   -2.1555455 0.19780612 1.11756533
N   1.96483876 -0.71512716 -0.7919327
N   -1.9977214 -0.6038303 -1.02253302
C   1.59492272 0.48090928 1.31816871
C   -0.62906262 1.3004784 -0.35271635
C   0.28004014 -0.21893201 1.45030179
C   -0.85593988 0.75948573 1.02890967
C   2.0351119 1.4915101 2.31920861
C   0.25190158 2.41125048 -0.66281547
C   2.36651799 0.26009071 0.08098029
C   -1.25474096 0.51349231 -1.36054796
C   0.95741322 -1.7141433 -0.55227041
C   -2.58050575 -0.77023293 0.25058071
H   0.15162748 -0.37917749 2.54593863
H   -0.72760502 1.66903373 1.78306055
H   1.24660366 2.07406612 2.80042363
H   2.63825757 1.01794278 3.07569516
H   2.66294548 2.20100385 1.8142475
H   -0.15226524 3.22516855 -1.26015946
H   0.59721672 2.92144024 0.2328992
H   1.08614205 2.13851301 -1.24008034
H   -0.38862191 -2.17256247 0.87531427
H   -2.5085141 0.14152272 2.09097392
H   2.13747465 -0.57107987 -1.82600056
H   -2.31817007 -1.18612246 -1.78125645
*
