30
Coordinates from ORCA-job orca E -908.924925114651
  O           2.70743496796424      1.14368064634700     -0.57070153543621
  O          -0.46952555603099      0.81842394793830     -2.16471650941682
  O           0.85356704433567     -2.90204294700194     -1.49599055935736
  O          -2.69749051451383     -1.63213404016840      0.94113525103285
  N           0.57575150285514     -2.02101205632609      0.58589548916472
  N          -2.09883997537848      0.50554138497479      1.45096836675657
  N           1.82180729435104     -0.89785772558838     -0.98909217696192
  N          -1.66055041058386     -0.35047902261161     -0.63712266319146
  C           1.29328490668410      0.20229800209137      1.08675363305672
  C          -0.73545231654757      1.78818237818748     -0.01288088392824
  C           0.67818552357785     -0.93966290191989      1.42887047583235
  C          -1.41885793159990      1.65833823835990      1.12857449503235
  C           1.55651490731872      1.30171856190975      2.06695823418566
  C          -0.00842580732156      3.03479939802064     -0.40706010709521
  C           2.00188948661730      0.23157726784865     -0.19552810493102
  C          -0.91212493021053      0.75839849438221     -1.03970200794188
  C           1.06508273177656     -2.01327512456532     -0.70299527081644
  C          -2.19521410675508     -0.57931828533301      0.60802025811300
  H           0.22041923277190     -1.07598479239935      2.39673909116321
  H          -1.42178024983427      2.42379292384505      1.88901704734250
  H           1.40362698929468      2.27835578784943      1.62023046119979
  H           0.90935194675655      1.20173687912671      2.93614455588112
  H           2.59160430303934      1.26646414401648      2.40377185468111
  H          -0.45643828321867      3.46198002199189     -1.30212486279181
  H          -0.04851410961136      3.77175220070104      0.39216319178969
  H           1.03157541043976      2.81974160267878     -0.64035750555149
  H          -0.04672864497442     -2.77900051300889      0.80762873296383
  H          -2.53980574455168      0.39474648804991      2.34594120164954
  H           2.19044558729335     -0.84841350474639     -1.92593002399576
  H          -1.73819325394397     -1.10734745465013     -1.30001012842940
