! Engrad def2-TZVPPD wB97M-D3BJ 
%pal nprocs 8 end%pal nprocs 64 end 
%tddft Nroots 2 Iroot 1 
sf true 
end 
*xyz 0 3 
O   1.99869903 -0.11114001 -1.457146
O   -0.32567112 3.06289132 -1.74179262
O   0.43849646 -4.00204148 0.50981556
O   -1.9227426 -1.16696631 -1.41087339
N   0.79995596 -2.2397388 1.84307676
N   -1.08685981 -0.3028348 0.51351279
N   1.36494275 -2.09680617 -0.46285774
N   -1.33771166 1.08701741 -1.47381818
C   1.36633182 0.05766202 0.77521511
C   -1.31453206 2.71259808 0.34003297
C   0.90401204 -0.78088087 1.97800942
C   -0.07529948 0.24479033 1.27008483
C   2.25322118 1.22609949 0.87367451
C   -1.54893948 3.96660903 0.99803722
C   1.55274353 -0.68499959 -0.5147597
C   -0.94131555 2.33381019 -0.98152609
C   0.82191441 -2.82433527 0.61028456
C   -1.50471856 -0.19206388 -0.82596562
H   1.38254652 -0.49038135 2.86927493
H   -0.4774291 1.1397132 1.79183976
H   2.0050913 1.90934881 0.06226675
H   2.22082294 1.64999321 1.8607826
H   3.26358442 1.03273754 0.51892893
H   -0.8864419 4.16879424 1.89793595
H   -1.45167418 4.80899431 0.29011186
H   -2.57449232 3.91534639 1.36740395
H   0.09391336 -2.69427725 2.43397405
H   -1.36042665 -1.29095608 0.66244096
H   1.69377102 -2.55588991 -1.24787914
H   -1.32511024 1.04460144 -2.4381868
*
