! Engrad def2-TZVPPD wB97M-D3BJ 
%pal nprocs 8 end%pal nprocs 64 end 
%tddft 
 Iroot 2 Nroots 3 
sf true 
end 
*xyz 0 3 
O   3.14111976 -0.8214515 -1.89246311
O   -1.95856886 1.64841551 -1.58455611
O   -0.93777416 -2.80713444 -1.49121564
O   -3.06254877 0.92467418 2.69731597
N   -0.19308294 -1.48437302 0.26469021
N   -0.86714743 0.74286673 2.08699927
N   1.1054583 -1.80624574 -1.7019622
N   -2.49865129 0.93357958 0.50867201
C   2.06786079 -0.61544208 0.14714452
C   -0.15818913 1.43842628 -0.08128239
C   0.78163428 -0.67971081 0.92207158
C   0.22374236 0.73865076 1.11595213
C   3.25882286 0.02070759 0.68162973
C   0.86044782 1.90834398 -1.09780057
C   2.20348042 -1.14017816 -1.21727445
C   -1.55388295 1.35646347 -0.45552241
C   -0.08554099 -2.06218651 -1.00754359
C   -2.22417151 0.87918208 1.83327424
H   1.02738506 -1.05451044 1.95642365
H   1.10015171 1.16230646 1.54179286
H   3.22729535 0.4788036 1.70639135
H   4.10707217 -0.68652577 0.69607371
H   3.58554667 0.81308191 -0.0576818
H   0.48180492 2.73521332 -1.71086932
H   1.7481216 2.32136543 -0.57024282
H   1.26668148 1.10400402 -1.69880856
H   -0.99489652 -1.5530789 0.817508
H   -0.53758334 0.9157726 2.9642071
H   1.3012011 -2.27178322 -2.59496498
H   -3.45621684 1.23703007 0.31947938
*
