! Engrad def2-TZVPPD wB97M-D3BJ 
%pal nprocs 8 end%pal nprocs 64 end 
%tddft 
 Iroot 1 Nroots 3 
sf true 
end 
*xyz 0 3 
O   0.78618869 -0.78089023 -0.7009962
C   0.7507561 0.11187649 0.42995706
C   -0.40463255 0.94571835 0.55251829
H   1.64834483 0.70264419 0.28163033
H   0.96365896 -0.51854106 1.34890768
H   -0.30934206 1.99633409 0.47977095
H   -1.40088977 0.60084681 0.54782483
*
