! Engrad def2-TZVPPD wB97M-D3BJ 
%pal nprocs 8 end%pal nprocs 64 end 
%tddft 
 Iroot 2 Nroots 3 
sf true 
end 
*xyz 0 3 
O   0.86623451 1.03893095 -0.29348295
C   0.65217237 -0.02751492 0.49243929
C   -0.41688955 -0.87135951 0.00393704
H   0.56501586 0.19005266 1.57131388
H   1.72405749 -0.40623178 0.48120907
H   -0.90169582 -1.48366318 0.82635651
H   -0.37416862 -1.10878726 -0.99213382
*
