! Engrad def2-TZVPPD wB97M-D3BJ 
%pal nprocs 8 end%pal nprocs 32 end 
 %tddft nroots 2 Iroot 1 
sf true 
end 
*xyz 0 3 
O   2.30509204774426 -0.287209491588 -1.16208958592659
O   -0.19464487012832 2.79971054909139 -2.27448919083545
O   0.21522343480567 -3.78629779514216 0.77492526560974
O   -2.14187320819015 -1.08703319815565 -1.39527354909788
N   0.38741687536687 -1.87919625308875 1.99384810416867
N   -1.38164226462432 -0.17326973412754 0.52314031661685
N   1.06682855048878 -1.93243215879077 -0.22987891008539
N   -0.79460971791421 0.71110970412613 -1.61102125723218
C   1.35683534038532 0.16618986578335 0.95898251337501
C   -0.30663435768854 2.6841772475486 -0.10525812903394
C   0.58447139080968 -0.4694050338188 2.06737216254538
C   -0.37976523075286 0.42665420294169 1.30318037515418
C   2.26837626066829 1.32092459050632 1.22260875529184
C   -1.53424303333908 3.36763719301866 0.34139791926927
C   1.62669390163438 -0.66511162865023 -0.23690284530321
C   -0.45021664798365 2.02024232492599 -1.36308697215199
C   0.52378716453474 -2.62110306547722 0.85235912197357
C   -1.48486735483761 -0.23211471364718 -0.85021866258022
H   0.83761100453575 -0.14585326372728 3.0676138226718
H   -0.53312891886126 1.40854547729005 1.72029279287174
H   2.4106315106927 1.90740144453349 0.32267626676215
H   1.85484228872298 1.96901679113618 1.99129234930028
H   3.23638739985724 0.94995406113957 1.56124557867391
H   -2.45557192590148 2.78614566571728 0.24183347796329
H   -1.45030577232823 3.81400332282614 1.32806550304769
H   -1.61391986589505 4.188382693634 -0.3854937816506
H   -0.03416777538764 -2.36824978799109 2.76250945411655
H   -1.85476613917046 -0.96511070243123 0.93237210287401
H   1.22926057100301 -2.4975971844833 -1.04843429117976
H   -0.84050065824684 0.50488887690033 -2.59896870720871
*
