! Engrad def2-TZVPPD wB97M-D3BJ 
%pal nprocs 8 end%pal nprocs 64 end 
%tddft Nroots 2 Iroot 2 
sf true 
end 
*xyz 0 3 
O   3.20169382 0.39464978 -0.91360211
O   -0.64150728 1.53595211 -2.30912252
O   0.40894028 -3.07965828 -0.35311159
O   -3.00779147 -1.77611275 -0.41746616
N   0.3376222 -1.43818832 1.21137063
N   -2.15614632 -0.18286468 0.96485316
N   1.54885609 -1.15806395 -0.76493376
N   -1.48733157 -0.29353614 -1.2538284
C   1.76430623 0.50356935 0.95378855
C   -0.8648924 1.6189315 0.04770846
C   0.38306482 -0.04049096 1.55629984
C   -1.07704413 0.72125488 1.23376756
C   2.48538719 1.57198108 1.64962107
C   -0.69080784 3.07000171 0.19447279
C   2.24611023 -0.04720883 -0.29450311
C   -0.96821515 1.00021802 -1.26513597
C   0.72854228 -1.96850945 0.00268134
C   -2.27630081 -0.83576309 -0.23905719
H   0.49772053 0.02002475 2.63999667
H   -1.32814752 1.31238472 2.10686936
H   3.47130684 1.73787817 1.20119092
H   1.92712929 2.51382079 1.60354104
H   2.58874686 1.34435277 2.71828107
H   -1.57363388 3.51684654 0.6717101
H   0.15139567 3.29141669 0.85454974
H   -0.52660516 3.53836495 -0.76562232
H   -0.29814095 -2.05129352 1.70858954
H   -2.70238392 -0.57922936 1.71193897
H   1.90673138 -1.571387 -1.61530603
H   -1.59466513 -0.7492575 -2.14669841
*
