7
Coordinates from ORCA-job orca E -153.923978215513
  O           0.99433311048217      1.12154755903315      0.24028484238348
  C           0.88314559615928      0.05116572767680     -0.31162430588177
  C          -0.32982421810022     -0.71542420516818      0.18131463309866
  H          -0.00283401734713     -1.50865883468036      0.85687793850714
  H           1.58638309377788     -0.33597842022751     -1.06228703143528
  H          -0.88362065433731     -1.20137660502922     -0.62345120842797
  H          -0.96092646582227     -0.01954950635684      0.71888513175575
