! Engrad def2-TZVPPD wB97M-D3BJ 
%pal nprocs 8 end%pal nprocs 32 end 
%tddft Nroots 2 Iroot 1 
sf true 
end 
*xyz 0 3 
O   0.55767619 1.10696917 0.27675883
C   0.58294946 -0.21953779 0.01520749
C   -0.77350495 -0.73701747 0.02074626
H   1.24766662 -0.73818046 0.74647593
H   1.0878031 -0.35322341 -0.93846145
H   -1.19659652 -1.29803259 -0.77689403
H   -1.4251465 -0.31988453 0.76999638
*
