! Engrad def2-TZVPPD wB97M-D3BJ 
%pal nprocs 8 end%pal nprocs 32 end 
 %tddft nroots 2 Iroot 2 
sf true 
end 
*xyz 0 3 
O   2.55305521082553 1.19046046898773 -0.50197931749017
O   -0.63046563779062 0.84639624720013 -2.28892500691753
O   0.57712463413156 -2.76312864146209 -1.54289473865055
O   -2.45771742691227 -1.61860948477079 1.06230147042985
N   0.64144347853795 -2.12107834656228 0.64046560436303
N   -2.01150939567965 0.58222450062507 1.43634824987953
N   1.67175541536805 -0.84262805346516 -0.97670575999694
N   -1.6127623348983 -0.34006893535421 -0.63014592802181
C   1.50049115740821 0.0134284389778 1.26687926697639
C   -0.90345822792145 1.92573591688507 -0.19055256818406
C   0.87142584937119 -1.13013921157029 1.5655117302323
C   -1.43265847393241 1.7636385727976 1.02660768106327
C   1.76914571661324 1.10167090309356 2.25430215221294
C   -0.22900150369777 3.17669279345599 -0.65212080435798
C   1.96670916117757 0.20478607527138 -0.10669944668496
C   -1.01773840618963 0.81832876091921 -1.14246083053553
C   0.93811125230563 -1.97499602680398 -0.69770093938353
C   -2.06268386516301 -0.54643691289714 0.65205666659753
H   0.4986871966973 -1.33995006924102 2.55675017605906
H   -1.4133813313579 2.5464546223473 1.76952840829798
H   1.35521856937787 2.04456012962044 1.90108622727018
H   1.33438448929111 0.86204369058433 3.22240831010537
H   2.83912408880724 1.25664141300074 2.3800224215697
H   -0.71048266962966 3.56332465519956 -1.5479002374158
H   -0.25879174230768 3.93896580340054 0.12328815127464
H   0.80944022813305 2.96890991124122 -0.90336890570211
H   0.00202276550111 -2.86706643364502 0.8554345184308
H   -2.35082975528617 0.47048081639749 2.37416806785043
H   1.85867827295684 -0.67627489463807 -1.95387344965045
H   -1.64273671573697 -1.13936670959513 -1.24723116962156
*
