! Engrad def2-TZVPPD wB97M-D3BJ 
%pal nprocs 8 end%pal nprocs 64 end 
%tddft Nroots 2 Iroot 1 
sf true 
end 
*xyz 0 3 
O   3.37040261 0.64309031 -0.63130799
O   -1.34792912 1.2661179 -2.36400566
O   0.76611155 -2.91927299 -0.98786497
O   -2.96294279 -1.7975766 0.48797989
N   0.36379376 -1.5360817 0.78534221
N   -2.04422926 0.07421718 1.41590042
N   1.65753011 -0.82327223 -1.01224341
N   -2.234039 -0.22057601 -0.93530782
C   1.67167117 0.54809025 0.95163147
C   -0.74429247 1.42380942 -0.10535033
C   0.50097342 -0.29169911 1.42761162
C   -0.7100886 0.70051513 1.18621863
C   2.35046766 1.57441628 1.84303364
C   -0.00055698 2.77403651 -0.38551222
C   2.34341026 0.10850677 -0.27753141
C   -1.45413724 0.85492278 -1.22877905
C   0.92222463 -1.86883425 -0.41154904
C   -2.45703233 -0.73458431 0.30668909
H   0.45300718 -0.51313161 2.47655062
H   -0.62140742 1.37654469 2.08053151
H   2.91898041 2.278761 1.1104574
H   1.7006367 2.07334875 2.5801536
H   3.10092935 1.01310684 2.42941525
H   -0.66209186 3.46878156 -0.8913431
H   0.36150941 3.32760779 0.52980351
H   0.86300183 2.63690327 -1.01661403
H   -0.20901761 -2.25444263 1.20579093
H   -2.01994796 -0.52137183 2.23606552
H   2.03096802 -1.13685569 -1.87020641
H   -2.65606483 -0.82929944 -1.58177299
*
