30
Coordinates from ORCA-job orca E -908.919949427349
  O           2.89218098440171      1.22978318151367     -0.49162068534771
  O          -0.50009535983435      0.47829518853198     -1.94390189234049
  O           1.32449418612759     -2.86336023386566     -1.69169693382411
  O          -3.11532458029911     -1.39626274942479      1.24741393414797
  N           0.65206893316610     -1.96785701331490      0.29133510246777
  N          -2.24360601911842      0.67556043848406      1.62696497562486
  N           2.11749422939921     -0.81780109520121     -1.05664319631034
  N          -1.90822968711889     -0.36609974211029     -0.39204417469225
  C           1.30643778113547      0.22536688773426      0.96384535900842
  C          -0.76648777390086      1.70754608392660      0.07158725708922
  C           0.66705967005584     -0.93156508217499      1.19188596411138
  C          -1.47332707869721      1.74055655849885      1.20563455545497
  C           1.49903078831353      1.26230581466731      2.02613121441684
  C           0.01247972786554      2.87847903938266     -0.44138327927429
  C           2.16049604287132      0.29758389542672     -0.22948378376218
  C          -1.00771070457650      0.59556006203755     -0.85037197642762
  C           1.35824903069100     -1.95531839965134     -0.89543423022347
  C          -2.47643107575602     -0.44218912874309      0.85884631010991
  H           0.10715696909965     -1.10824851120451      2.09828529363194
  H          -1.42806767332844      2.57451078240159      1.88864597631335
  H           1.38134327065035      2.26731168789570      1.63522058742696
  H           0.79304039126506      1.11040760053121      2.83968496959039
  H           2.50853141296650      1.19653131016151      2.42955482551513
  H          -0.41474896369654      3.22282694209863     -1.38135102724214
  H          -0.01613923964078      3.69681888260005      0.27481753878965
  H           1.04921945274559      2.62131289060746     -0.63751341495192
  H           0.10206795292353     -2.79063526297077      0.46204817257270
  H          -2.70670131141708      0.68998727179706      2.51749992453093
  H           2.63793987937078     -0.75766801524717     -1.91726058809205
  H          -2.05982123566461     -1.15873928438818     -0.99609677831382
