7
Coordinates from ORCA-job orca E -153.927980071140
  O           0.50859193083896      1.28239509804285      0.12853759998782
  C           0.61805136217339      0.15121461388971     -0.27788971060878
  C          -0.44576518629216     -0.81252522080655      0.19065566081908
  H           0.00155072999251     -1.64850552941264      0.73152040690098
  H           1.43123082232269     -0.17375932372551     -0.94519297634301
  H          -0.97823117329185     -1.24302310395848     -0.65943132926218
  H          -1.13322848574354     -0.27419653402939      0.83180034850608
