! Engrad def2-TZVPPD wB97M-D3BJ 
%pal nprocs 8 end%pal nprocs 64 end 
%tddft 
 Iroot 2 Nroots 3 
sf true 
end 
*xyz 0 3 
O   0.93416181 -0.85197988 0.48421214
C   0.6850539 0.16677184 -0.40447487
C   -0.53738825 0.94158901 0.10417006
H   0.68027839 -0.03225678 -1.51498328
H   1.53355342 0.92149907 -0.54970965
H   -0.23951626 1.8693578 0.54160935
H   -1.23705051 0.2930478 0.5392614
*
