30
Coordinates from ORCA-job orca E -908.782985587958
  O           3.32076942498541      0.75615831179987     -0.26182454640181
  O          -0.67801469523041      0.82733505231357     -2.51464866119424
  O           0.68085997241618     -2.82849942782569     -1.14992905285421
  O          -3.54973156114307     -1.08701724417698      0.39167309772223
  N           0.22173569747999     -1.60619579381341      0.70172329614437
  N          -2.00898307557333      0.35723081344428      1.25879607414174
  N           2.01571746012643     -1.05339845212461     -0.67203447234659
  N          -1.91734045131562     -0.31193362667720     -0.98392961412579
  C           1.47130265726682      0.42103520670468      1.16680025053564
  C          -0.48475466681310      1.42721442535979     -0.21936105727805
  C           0.33178639567568     -0.41340043631614      1.48792533310470
  C          -0.56150112960477      0.73837677436942      1.15283634213281
  C           1.96474039310342      1.47380848017373      2.08505253056155
  C          -0.37663996075656      2.89596300931568     -0.32428409551260
  C           2.35088973856756      0.08845393978389      0.03569919633442
  C          -0.97842687401819      0.64139757673904     -1.35674417075285
  C           0.94003076904000     -1.89504673671567     -0.42768362507330
  C          -2.56524604679914     -0.39505491387453      0.25436815784165
  H           0.26183191767999     -0.65261575271725      2.55100530799673
  H          -0.41973572697748      1.50626551455049      1.90576356296376
  H           1.80472359182064      2.47161568364074      1.66633522936845
  H           1.48086399405405      1.42428451875248      3.05753008820097
  H           3.04301224620922      1.37545055155419      2.19875226414108
  H          -1.27273397836090      3.38371748317963      0.07479441448976
  H           0.47074911068175      3.27402348711345      0.25235162000116
  H          -0.25984985356744      3.18981145223906     -1.36340180643272
  H          -0.59993440090388     -2.17495529413146      0.81076322149564
  H          -2.45346195742579      0.19897563589061      2.14903387321901
  H           2.54698499633726     -1.25169439007258     -1.50373712270334
  H          -2.32704398695476     -0.86630584847911     -1.71902563572017
