! Engrad def2-TZVPPD wB97M-D3BJ 
%pal nprocs 8 end%pal nprocs 64 end 
%tddft Nroots 2 Iroot 2 
sf true 
end 
*xyz 0 3 
O   3.11472325 0.5395226 -0.85919076
O   -0.44036904 1.34518391 -2.30964785
O   0.42294714 -3.06785059 -0.54553779
O   -3.14993303 -1.59248066 -0.25318676
N   0.28719985 -1.51914701 1.10458269
N   -2.12923757 -0.02947163 1.04976941
N   1.59069781 -1.14009827 -0.78927533
N   -1.50382994 -0.30728055 -1.17186889
C   1.59080052 0.53291279 0.94221839
C   -0.62803053 1.56663123 0.04748386
C   0.3745952 -0.15409148 1.57829901
C   -0.91819722 0.71835209 1.27831533
C   2.31061881 1.5863786 1.69555697
C   -0.59864064 3.04175747 0.11179841
C   2.17509574 0.01413805 -0.28805058
C   -0.81912202 0.90546516 -1.24289416
C   0.72968677 -1.98353711 -0.10613639
C   -2.32324516 -0.72040123 -0.12237724
H   0.51467869 -0.19522281 2.65320087
H   -1.08153557 1.3809506 2.13082416
H   3.01359434 2.10791046 1.05104727
H   1.62422703 2.30339774 2.1502275
H   2.8720771 1.13478759 2.51687712
H   -1.59392546 3.42447679 0.36019306
H   0.06407967 3.39297884 0.89818708
H   -0.29609078 3.44293994 -0.84981011
H   -0.37103799 -2.13557336 1.54153127
H   -2.69412531 -0.36281189 1.81965332
H   1.98082305 -1.50672477 -1.65195653
H   -1.66096208 -0.78396357 -2.04851061
*
