! Engrad def2-TZVPPD wB97M-D3BJ 
%pal nprocs 8 end%pal nprocs 64 end 
%tddft 
 Iroot 1 Nroots 3 
sf true 
end 
*xyz 0 3 
O   2.83693993 -0.30935892 -1.90510386
O   -1.70001785 1.28077372 -2.02143188
O   -0.76969581 -2.84214944 -0.97703892
O   -3.19997445 -0.2490638 1.96690659
N   0.08126547 -1.54270195 0.77870796
N   -1.17053706 0.79205284 1.89116351
N   1.05154128 -1.47870128 -1.35411674
N   -2.33212477 0.33674264 -0.05202795
C   2.07266016 -0.19152859 0.38174096
C   -0.17482526 1.46978118 -0.24970293
C   0.91749568 -0.43819026 1.25489381
C   0.13202986 0.98716723 1.17669955
C   3.196932 0.60435314 0.94249815
C   0.84874897 2.32469208 -0.94930063
C   2.08949166 -0.63675019 -1.03386424
C   -1.42968611 1.04711695 -0.85478129
C   0.01902793 -2.01885343 -0.5312559
C   -2.27697859 0.26403019 1.37489609
H   1.17107879 -0.51430115 2.31377529
H   0.72211746 1.76601619 1.7369904
H   3.3163013 0.31527979 2.02969598
H   4.10298769 0.44245205 0.41435857
H   3.03909727 1.68461295 0.83083538
H   0.42175489 2.92488207 -1.77420832
H   1.13837206 3.11345894 -0.30706823
H   1.62128641 1.67718605 -1.47239947
H   -0.72015199 -1.73290725 1.35325037
H   -1.20983203 0.80607674 2.88457117
H   1.2102913 -2.003278 -2.21186966
H   -2.90219948 -0.31847799 -0.50457249
*
