! Engrad def2-TZVPPD wB97M-D3BJ 
%pal nprocs 8 end%pal nprocs 64 end 
%tddft 
 Iroot 2 Nroots 3 
sf true 
end 
*xyz 0 3 
O   2.74309794 -0.94691369 -2.2507885
O   -2.3108056 1.52690719 -1.35715517
O   -1.34557372 -2.62692346 -1.13319049
O   -2.26196763 0.98364593 3.08614454
N   -0.07128819 -1.68593586 0.48231625
N   -0.29158731 0.89547926 2.11047695
N   0.49899726 -1.52331032 -1.73015922
N   -2.20599997 1.16861325 0.89256354
C   2.10716287 -0.78786796 -0.09004572
C   -0.1601159 1.28505745 -0.32030045
C   0.98941901 -0.71703353 0.82891968
C   0.51374591 0.74029097 0.89701741
C   3.40826796 -0.22298936 0.30883922
C   0.45637512 1.82443561 -1.53244309
C   1.77811515 -1.06629511 -1.4696582
C   -1.65427009 1.3594723 -0.39937487
C   -0.40580759 -2.03625003 -0.82192167
C   -1.60539456 1.03118769 2.10639376
H   1.33320806 -1.07726689 1.82700366
H   1.46715818 1.24722805 1.07229154
H   3.58395301 -0.11790365 1.39506261
H   4.17575811 -0.85014654 -0.00767752
H   3.55647237 0.78258303 -0.17975413
H   -0.30308297 2.52278385 -2.05823275
H   1.22980342 2.50567034 -1.13663239
H   0.84751345 1.21199119 -2.33053326
H   -0.59023497 -2.2446826 1.17199794
H   0.16755771 0.58195804 2.97944179
H   0.36520369 -1.64570341 -2.69005899
H   -3.2144213 1.31462153 0.98039643
*
