! Engrad def2-TZVPPD wB97M-D3BJ 
%pal nprocs 8 end%pal nprocs 64 end 
%tddft Nroots 2 Iroot 1 
sf true 
end 
*xyz 0 3 
O   2.4155832 0.46677509 -0.94739766
O   -0.97231762 2.42016531 -2.47905412
O   1.00770025 -3.71656569 0.06054985
O   -2.31699448 -1.54505427 -0.96758977
N   0.93014544 -2.06643926 1.65034274
N   -1.27260869 -0.5136588 0.75992314
N   1.31347035 -1.5305666 -0.60723479
N   -1.36679626 0.42268749 -1.52417711
C   1.16887419 0.30711849 0.97770494
C   -1.19645706 2.49148422 -0.08867716
C   0.87330414 -0.69113814 2.06279015
C   -0.26097459 0.19984309 1.40911931
C   1.93407739 1.63038734 1.33709843
C   -1.50873069 3.86764788 0.45906669
C   1.64742437 -0.24912398 -0.27550821
C   -1.10729153 1.81821292 -1.43432281
C   1.07454611 -2.54581823 0.33375951
C   -1.6816503 -0.59567555 -0.61974284
H   1.12701804 -0.58104805 3.11227303
H   -0.65695641 1.03628035 1.92943406
H   1.68928078 2.33940395 0.59549446
H   1.46265705 1.89515674 2.29954715
H   3.02729004 1.47245838 1.36368076
H   -1.37682712 3.93126356 1.52060399
H   -0.90764656 4.67375348 0.03902253
H   -2.54845248 4.17002153 0.17067919
H   0.48480259 -2.74606425 2.220399
H   -1.86644509 -1.16410904 1.20606749
H   1.73959405 -1.92735434 -1.41279879
H   -1.76203621 0.25510861 -2.44331283
*
