! Engrad def2-TZVPPD wB97M-D3BJ 
%pal nprocs 8 end%pal nprocs 64 end 
%tddft 
 Iroot 1 Nroots 3 
sf true 
end 
*xyz 0 3 
O   1.17519744 -0.80149148 0.24530712
C   0.57257721 0.40450879 0.37245336
C   -0.64689865 0.63218299 -0.45390087
H   1.41494717 1.15028842 0.19269129
H   0.38833658 0.50438685 1.48261407
H   -1.70536904 0.64724036 -0.00474722
H   -0.43165836 0.90284649 -1.45698964
*
