7
Coordinates from ORCA-job orca E -153.858934196140
  O           0.15886298324314      0.89174510775561     -0.00053342754895
  C           0.66726935713895     -0.36280784097657     -0.00003452945801
  C          -0.73027766692539     -0.59248963211675      0.00007581214505
  H           1.22247214982406     -0.64913512248616      0.89642137477226
  H           1.22233314921619     -0.64935948720514     -0.89650571103895
  H          -1.26942945083900     -0.67921693834691     -0.92788362869529
  H          -1.26903052165796     -0.67713608662406      0.92846010982389
