7
Coordinates from ORCA-job orca E -153.851947508303
  O           0.18481782204118      0.91022155428070     -0.00069235829339
  C           0.66050700163311     -0.35285160085596     -0.00004398061895
  C          -0.73150585253522     -0.61429012390449      0.00005441399909
  H           1.21691153477783     -0.64742005825936      0.89434849276693
  H           1.21677199327286     -0.64778456282740     -0.89441556444949
  H          -1.27301291694152     -0.68451167301848     -0.92813924880640
  H          -1.27228958224823     -0.68176353541502      0.92888824540223
