! Engrad def2-TZVPPD wB97M-D3BJ 
%pal nprocs 8 end%pal nprocs 64 end 
%tddft 
 Iroot 1 Nroots 3 
sf true 
end 
*xyz 0 3 
O   -0.51385765 -0.20296086 0.72292317
C   0.42883969 0.59741466 0.12620176
C   1.40710729 -0.20082191 -0.70541538
H   0.87666614 1.04240476 0.97184366
H   0.00276161 1.31969921 -0.5118226
H   1.90922036 -1.01130871 -0.12586325
H   1.47022545 -0.12344641 -1.76614248
*
