7
Coordinates from ORCA-job orca E -153.885711229628
  O           0.04643326693884      0.81168126767156     -0.00007002104475
  C           0.70672495374402     -0.41192761285270      0.00021152004148
  C          -0.72783919045086     -0.48454762891474     -0.00025942929463
  H           1.24906555918401     -0.65405022073712      0.90952509355972
  H           1.24860291391632     -0.65483835678225     -0.90924530796468
  H          -1.26071084865358     -0.66213913829117     -0.92189713946473
  H          -1.26007665467875     -0.66257831009358      0.92173528416759
