! Engrad def2-TZVPPD wB97M-D3BJ 
%pal nprocs 8 end%pal nprocs 32 end 
%tddft Nroots 2 Iroot 2 
sf true 
end 
*xyz 0 3 
O   0.06185604 1.090105 0.06107319
C   0.6284144 -0.49868735 -0.12806277
C   -0.69163323 -0.77397562 0.07720936
H   1.36329674 -0.65678217 0.61424078
H   0.95557252 -0.41805831 -1.16333544
H   -1.34825518 -0.88985138 -0.91158105
H   -1.1543564 -0.82637964 1.13728487
*
