! Engrad def2-TZVPPD wB97M-D3BJ 
%pal nprocs 8 end%pal nprocs 64 end 
%tddft 
 Iroot 1 Nroots 3 
sf true 
end 
*xyz 0 3 
O   0.96506214 1.00349213 0.19838334
C   0.78472856 -0.30594479 0.00809818
C   -0.6358869 -0.588448 0.00745727
H   1.28266249 -0.94104278 0.76324598
H   1.2219534 -0.64426625 -0.94848
H   -1.18029803 -0.8772204 -0.8828808
H   -1.20858695 -0.212368 0.83182155
*
