! Engrad def2-TZVPPD wB97M-D3BJ 
%pal nprocs 8 end%pal nprocs 64 end 
%tddft 
 Iroot 2 Nroots 3 
sf true 
end 
*xyz 0 3 
O   1.04119689 -0.78654995 -0.30596465
C   0.69664186 0.26837642 0.35598121
C   -0.63472157 0.773574 0.20102123
H   1.42252237 1.07600413 0.07890348
H   0.85083878 -0.10457672 1.49040241
H   -0.64031377 1.86523566 0.04905315
H   -1.39881426 0.13693604 -0.26223791
*
