! Engrad def2-TZVPPD wB97M-D3BJ 
%pal nprocs 8 end%pal nprocs 64 end 
%tddft 
 Iroot 1 Nroots 3 
sf true 
end 
*xyz 0 3 
O   0.6750335 -0.74817464 -0.69325648
C   0.82661763 0.06001536 0.4098324
C   -0.34938499 0.98561247 0.53075033
H   1.90530794 0.5038876 0.35207938
H   0.77591083 -0.65863944 1.2914846
H   -0.31764414 2.01930625 0.69734959
H   -1.28912966 0.52948201 0.69132487
*
