! Engrad def2-TZVPPD wB97M-D3BJ 
%pal nprocs 8 end%pal nprocs 64 end 
%tddft Nroots 2 Iroot 1 
sf true 
end 
*xyz 0 3 
O   2.45451553 1.26971606 -0.32121001
O   -0.82352908 0.80565122 -2.39958022
O   0.52806155 -2.63075348 -1.61130108
O   -2.39365088 -1.52224793 1.16602653
N   0.63098439 -2.15725908 0.60840909
N   -1.84136829 0.6662339 1.44687632
N   1.59532048 -0.73067543 -0.92249822
N   -1.66458839 -0.31009339 -0.63187416
C   1.51350647 -0.05970473 1.37853952
C   -0.92130838 1.96638993 -0.33289912
C   0.87542358 -1.26192986 1.61766624
C   -1.2868432 1.82239861 0.94887038
C   1.78660155 0.93008424 2.45142343
C   -0.27554814 3.19930162 -0.88685598
C   1.90720403 0.23805359 0.03222297
C   -1.11068931 0.82761265 -1.22842919
C   0.89950065 -1.89737462 -0.71797373
C   -2.00755194 -0.47539442 0.69567378
H   0.55342225 -1.52448633 2.60245686
H   -1.1657288 2.61931614 1.67422637
H   1.37535066 1.88355379 2.19003872
H   1.38269131 0.62896324 3.42053793
H   2.84646954 1.12599395 2.5559471
H   -0.83153759 3.57370914 -1.75329109
H   -0.24286425 4.00797768 -0.16744981
H   0.72998649 2.9912824 -1.22841649
H   0.03785632 -2.95353196 0.77413333
H   -2.08807247 0.61436597 2.40929139
H   1.75379952 -0.49634622 -1.90756493
H   -1.74062029 -1.11162724 -1.24017764
*
