! Engrad wB97M-D3BJ def2-TZVPPD 
%pal nprocs 8 end%pal nprocs 16 end 
%tddft nroots 2 Iroot 2
 sf true 
end 
*xyz 0 3 
O   0.54657423140817 0.9759993270396 -0.00032474942743
C   0.75062312310346 -0.34886689674387 -6.333415228e-05
C   -0.65565627489422 -0.57824861792421 0.00011918726932
H   1.27025807154735 -0.73269949532368 0.88721298998258
H   1.26997808681927 -0.73315722888002 -0.88730774214583
H   -1.20826795711741 -0.54444288335649 -0.92616415752619
H   -1.20803863839255 -0.54418589446483 0.92652780599984
*
