! Engrad def2-TZVPPD wB97M-D3BJ 
%pal nprocs 8 end%pal nprocs 64 end 
%tddft 
 Iroot 1 Nroots 3 
sf true 
end 
*xyz 0 3 
O   0.5717889 0.81824109 -0.75346266
C   0.45495881 -0.43389995 -0.1584513
C   0.22006447 -0.27491144 1.25268816
H   1.25900854 -0.99494607 -0.66597828
H   -0.40111716 -0.92064343 -0.62262662
H   1.08955282 -0.54158487 1.9038247
H   -0.39281862 0.63959732 1.59386413
*
