! EnGrad wB97M-D3BJ def2-TZVPPD 
%pal nprocs 8 end%pal nprocs 16 end 
%tddft 
 sf true 
 nroots 2 Iroot 1 end 
*xyz 0 3 
O   0.10142311354043 0.85029632419646 -0.00011795847636
C   0.68475267010725 -0.38594946419725 0.00022596142531
C   -0.72828629316232 -0.53869724110421 -0.00030485115806
H   1.23530562560209 -0.65239181490036 0.90206241439989
H   1.23480170925822 -0.65288726641827 -0.90186690838093
H   -1.26328449065015 -0.66972977374006 -0.92601160905983
H   -1.26251233469552 -0.66904076383633 0.92601295124998
*
