7
Coordinates from ORCA-job orca E -153.882058783926
  O          -0.05924163238638      0.75846556792912     -0.00003471658508
  C           0.76850995608389     -0.48300439332803     -0.00000949881394
  C          -0.73872822505863     -0.38872364213842      0.00001865207576
  H           1.28637876922032     -0.65253606340211      0.93001425883008
  H           1.28639814113700     -0.65260305757444     -0.93000831953725
  H          -1.27052801128851     -0.65003803359934     -0.91260930807657
  H          -1.27058899770770     -0.64996037788676      0.91262893210700
