! Engrad def2-TZVPPD wB97M-D3BJ 
%pal nprocs 8 end%pal nprocs 64 end 
 %tddft nroots 2 Iroot 1 
sf true 
end 
*xyz 0 3 
O   4.15145553617619 -0.11028026549896 0.86375050958458
O   -2.03312761287672 1.81448335235718 -2.17763699276391
O   1.28742794353759 -2.96468262682946 -1.12622862691901
O   -3.64417413665975 -1.48111921669702 0.43365683810079
N   0.39538836207044 -1.10656676751378 -0.14932482926309
N   -1.948162884184 -0.23057254937725 1.27478732646482
N   2.63616587674966 -1.65091418655612 0.14958580136521
N   -2.58482904327224 -0.01158859368716 -0.94525894090154
C   1.8549017240237 0.43550296841086 1.01152154106668
C   -1.04605690938107 1.59960067118868 -0.04645558182301
C   0.49177120152193 -0.24414113645573 1.0185397148056
C   -0.7940418853778 0.64112135932045 1.10121763040722
C   2.08394759405166 1.80718656756913 1.41326724003795
C   -0.58449014359715 2.98208847081276 0.01688840101068
C   2.98924930329979 -0.42539202425973 0.69124410699853
C   -1.89212278749263 1.18347556508241 -1.14685034708979
C   1.4055600140719 -1.98548077393528 -0.4299164720564
C   -2.79167916313342 -0.63571270523594 0.27954458895381
H   0.49243370060553 -0.89724793274033 1.91622232716732
H   -0.69706865639225 1.24223853680436 2.0089421418573
H   3.11266193107365 1.9529463508188 1.73092422916148
H   1.90550359439743 2.50858001653594 0.56531051880977
H   1.37160183207563 2.142682588455 2.17310490604555
H   -0.68098112879213 3.3958728694172 1.02419649718247
H   0.50149581616997 3.07026346623033 -0.20811873261382
H   -1.10326388008615 3.60075585699564 -0.70863055336771
H   -0.51075077094083 -1.47566331043922 -0.38562241985414
H   -2.07858860792173 -0.7167494887786 2.14380538411536
H   3.39849970208509 -2.25370505961723 -0.11906188686311
H   -3.2361265218023 -0.27198200237694 -1.66880431961959
*
