! Engrad def2-TZVPPD wB97M-D3BJ 
%pal nprocs 8 end%pal nprocs 64 end 
%tddft Nroots 2 Iroot 2 
sf true 
end 
*xyz 0 3 
O   2.25179026 -0.18543065 -1.17896912
O   -0.19390357 2.73351426 -2.29603048
O   0.24837634 -3.76655575 0.69589597
O   -2.20584331 -1.10795995 -1.32796981
N   0.38300436 -1.87925782 1.95042062
N   -1.3915223 -0.14751564 0.54921372
N   1.06973081 -1.88075323 -0.27096978
N   -0.83396328 0.66175104 -1.61889659
C   1.26241406 0.22393724 0.94019081
C   -0.24426175 2.59136359 -0.11266288
C   0.57971868 -0.47529059 2.06329457
C   -0.35072707 0.44799896 1.29746569
C   2.21439151 1.34304524 1.2386005
C   -1.42529238 3.3280033 0.37200605
C   1.57852401 -0.59614694 -0.26629403
C   -0.4365199 1.96238308 -1.38144547
C   0.53606047 -2.59674974 0.79597054
C   -1.5218507 -0.25219841 -0.82056867
H   0.85135677 -0.1673566 3.06592675
H   -0.54200985 1.38953573 1.75763003
H   2.38865527 1.94340684 0.34677287
H   1.81176439 1.9822767 2.01736327
H   3.15999317 0.93271794 1.56615739
H   -2.37408873 2.77680499 0.2815368
H   -1.30555669 3.76928335 1.35411945
H   -1.50244169 4.16329022 -0.3538929
H   -0.03680572 -2.38613994 2.70737482
H   -1.8907028 -0.9099716 0.98442651
H   1.25788399 -2.43367315 -1.09943175
H   -0.9084302 0.4452205 -2.60426612
*
