! Engrad def2-TZVPPD wB97M-D3BJ 
%pal nprocs 8 end%pal nprocs 64 end 
%tddft 
 Iroot 1 Nroots 3 
sf true 
end 
*xyz 0 3 
O   2.75646228 -0.96147601 -2.48609679
O   -2.51515079 1.38896668 -1.25746458
O   -1.27828047 -2.45608498 -1.08559873
O   -2.43818866 0.82683245 3.1419529
N   0.10662128 -1.54785379 0.44769889
N   -0.36480372 0.99734142 2.16895021
N   0.79453039 -1.74134267 -1.74736708
N   -2.48226229 0.9519688 0.9128358
C   2.23597552 -0.50698987 -0.1974075
C   -0.32770795 1.28943841 -0.22929115
C   1.09718252 -0.47895239 0.74527558
C   0.45535872 0.94563293 0.94110301
C   3.66485844 -0.31676746 0.20696444
C   0.40325463 1.72112982 -1.48845814
C   1.95247822 -1.07595517 -1.51649922
C   -1.79322513 1.2580629 -0.26237997
C   -0.24559437 -1.91374244 -0.82049864
C   -1.79649817 0.85286445 2.12349298
H   1.44471168 -0.64156682 1.73386207
H   1.27224134 1.60190392 1.05284429
H   4.10531082 -1.2731835 0.47558339
H   4.36197243 0.09445322 -0.57939991
H   3.63185369 0.34251048 1.10008057
H   -0.09713115 2.59209813 -1.89950644
H   1.40231197 2.04162061 -1.12074224
H   0.33602119 0.9432399 -2.2244048
H   -0.6641791 -1.43123262 1.04961158
H   0.00056718 1.30309231 3.09885374
H   0.56233764 -2.0825914 -2.65345068
H   -3.44937693 0.91977725 0.8397584
*
