30
Coordinates from ORCA-job orca E -908.936066889712
  O           2.52896902172922      1.20445469101394     -0.48926007499864
  O          -0.64431791043253      0.83958772073713     -2.29167050394663
  O           0.55262488048401     -2.74049468363431     -1.55763855528608
  O          -2.42115829780018     -1.60697914880547      1.09991537876027
  N           0.66408918540917     -2.13957311774477      0.63502065949345
  N          -2.01731064649215      0.60779942668566      1.43878171233501
  N           1.65899167654224     -0.83007056231605     -0.97978316284940
  N          -1.60333355003349     -0.33883096035582     -0.61373214177220
  C           1.53892398680629     -0.01894103386665      1.28418507882171
  C          -0.93969515101448      1.94802809024345     -0.21163562191368
  C           0.91457237047389     -1.16739731699890      1.57425723995716
  C          -1.46179821707931      1.79407798211688      1.00972996517538
  C           1.81816392299367      1.05637064578928      2.28288441652479
  C          -0.28304748344292      3.20085803812594     -0.69289689606123
  C           1.96593083126730      0.20392239463826     -0.09750938764400
  C          -1.03173230012357      0.82268842917071     -1.14498454862222
  C           0.93254315352904     -1.96824116796617     -0.70569571126271
  C          -2.04758673061310     -0.53382822951449      0.67248053984069
  H           0.56096276779027     -1.39490998844297      2.56856550543381
  H          -1.45591068682676      2.58821172315103      1.74082924924370
  H           1.36891065329702      1.99531412887581      1.96277915815618
  H           1.42407848894113      0.78890831663651      3.26095336075899
  H           2.88789671919839      1.23539898509855      2.37262745019916
  H          -0.76815984881418      3.56586625246227     -1.59571065755708
  H          -0.32399942775371      3.97524643945824      0.06985806608280
  H           0.75863073141465      3.00269542329503     -0.93897907528086
  H           0.02851616021651     -2.88914415867745      0.84871445728810
  H          -2.34999433329072      0.50355416124393      2.37982518975416
  H           1.81695413074823     -0.64192226841024     -1.95823721758489
  H          -1.62011409712398     -1.14765021200934     -1.21907387304577
