7
Coordinates from ORCA-job orca E -153.798269612488
  O           0.41076519871965      1.05250298503834     -0.00284771768550
  C           0.61640312409633     -0.27025255200108     -0.00051692554639
  C          -0.74469462539637     -0.73457570445848      0.00084804423998
  H           1.16816173644992     -0.62809624018413      0.88192597161139
  H           1.16771315863365     -0.63137124079572     -0.88188808163224
  H          -1.30864395644135     -0.75527875417567     -0.92207978100314
  H          -1.30750463606182     -0.75132849342327      0.92455849001589
