! EnGrad wB97M-D3BJ def2-TZVPPD 
%pal nprocs 8 end%pal nprocs 16 end 
%tddft 
 sf true 
 nroots 2 Iroot 2 end 
*xyz 0 3 
O   -0.00088044472167 0.78249647040915 -4.411262075e-05
C   0.73109923939042 -0.43833304582829 7.985516316e-05
C   -0.73049955055027 -0.43927130899723 -7.703166944e-05
H   1.26354055509581 -0.65479162224611 0.91747390881575
H   1.26339436689592 -0.6548980892996 -0.91739206766672
H   -1.26230259386134 -0.65681608203431 -0.91759985796758
H   -1.26215157224887 -0.65678632200361 0.91755930594559
*
