! Engrad def2-TZVPPD wB97M-D3BJ 
%pal nprocs 8 end%pal nprocs 32 end 
%tddft Nroots 2 Iroot 1 
sf true 
end 
*xyz 0 3 
O   0.81558726 1.41666861 -0.00513547
C   0.51733771 0.19065971 0.23426124
C   -0.45545567 -0.80828428 -0.24343448
H   1.19409219 -0.21537477 0.9525104
H   0.09612493 -1.66433358 -0.66105784
H   -1.17483779 -0.46566202 -1.0094715
H   -1.02728515 -1.1722298 0.62133186
*
