30
Coordinates from ORCA-job orca E -908.934999320434
  O           2.51092377777242      1.24296568256428     -0.36287123765061
  O          -0.78460112034268      0.83688868578527     -2.39783095077543
  O           0.57343831020350     -2.68835319941860     -1.56165822356716
  O          -2.47755313628878     -1.56986345659769      1.06699137011824
  N           0.59808129549871     -2.11082974199689      0.64048337391152
  N          -1.85369070793643      0.58849599737366      1.43044378828067
  N           1.62119748754310     -0.76394016416098     -0.92319857642978
  N          -1.68486583196333     -0.31960553034804     -0.67226996638005
  C           1.43662558121330      0.00481645827631      1.35158332634477
  C          -0.85371434707979      1.91419125249085     -0.28201117458564
  C           0.81718815452003     -1.15459581229210      1.60376306656267
  C          -1.24317467087153      1.73923478189171      0.98544108379704
  C           1.71236308335726      1.04866465635135      2.38364223871398
  C          -0.18402638955190      3.14926550125698     -0.78967340390534
  C           1.91426612321617      0.24698591472893     -0.01029408522203
  C          -1.08649784756856      0.81903407649122     -1.22594190586290
  C           0.90669652607623     -1.91916206315819     -0.68893079145195
  C          -2.04700816368273     -0.51869920015871      0.63855028539866
  H           0.44199598332105     -1.40521124142303      2.58453350965809
  H          -1.10822893325617      2.50342271538990      1.73535689618652
  H           1.35705795958272      2.02032072277534      2.04594206576113
  H           1.23208251388974      0.79878770585596      3.32756072892052
  H           2.78245728169068      1.15233681939223      2.55467394202849
  H          -0.73851857483099      3.56601549183313     -1.62794078742942
  H          -0.11369711544317      3.89833626741243     -0.00417495116782
  H           0.81907952721988      2.91576722430002     -1.13985153010530
  H          -0.02695728912013     -2.87602621597755      0.82728523304966
  H          -2.10771408208103      0.47823966974773      2.39487153679208
  H           1.83264381097881     -0.57097462676639     -1.89040377881437
  H          -1.79324920606640     -1.11150837161913     -1.28947108217629
