! Engrad def2-TZVPPD wB97M-D3BJ 
%pal nprocs 8 end%pal nprocs 64 end 
%tddft Nroots 2 Iroot 1 
sf true 
end 
*xyz 0 3 
O   2.39512434 1.23123082 -0.48243399
O   -0.57123912 0.74021304 -2.38564415
O   0.74690237 -2.92241945 -1.33565707
O   -2.52170113 -1.59407215 0.92228677
N   0.47722912 -2.05915842 0.73839293
N   -1.86854923 0.55096633 1.40884406
N   1.64304723 -0.9085062 -0.86368488
N   -1.62977391 -0.25046802 -0.69452649
C   1.52397848 -0.01250013 1.32589861
C   -0.73650501 1.91580413 -0.3097998
C   0.79891558 -1.14907258 1.65937512
C   -1.24609272 1.71116358 0.97114948
C   1.74707777 1.12634529 2.30384587
C   -0.36743032 3.24643933 -0.85634563
C   1.90728006 0.19909564 -0.04212365
C   -0.91987423 0.83043478 -1.2376527
C   0.98059805 -2.05564401 -0.54962679
C   -2.0763461 -0.50647415 0.57482724
H   0.28045741 -1.29097434 2.65357865
H   -1.41320574 2.45882505 1.6811822
H   1.43248451 2.0415928 1.80165428
H   1.00847582 0.92852692 3.04093667
H   2.76413039 1.21630923 2.70218784
H   -0.94757115 3.54191283 -1.69610412
H   -0.44782907 3.9870285 -0.07231742
H   0.6980775 3.24798737 -1.09176997
H   0.07600191 -2.95096745 0.94235679
H   -2.25352538 0.48798809 2.33792725
H   1.83666179 -0.72047135 -1.81884341
H   -1.806767 -0.95612094 -1.3251551
*
