! Engrad def2-TZVPPD wB97M-D3BJ 
%pal nprocs 8 end%pal nprocs 64 end 
%tddft 
 Iroot 1 Nroots 3 
sf true 
end 
*xyz 0 3 
O   0.73167307 0.8790644 0.9749722
C   -0.00291812 0.23084239 -0.0268633
C   0.53066764 -1.00760697 -0.78845062
H   -0.36473179 0.89147908 -0.83061324
H   -0.76787524 -0.13739894 0.65089721
H   0.32067704 -0.9755344 -1.79808915
H   1.40323301 -1.56265217 -0.50101564
*
