! Engrad def2-TZVPPD wB97M-D3BJ 
%pal nprocs 8 end%pal nprocs 64 end 
%tddft 
 Iroot 2 Nroots 3 
sf true 
end 
*xyz 0 3 
O   3.20536349 0.00782805 -1.94556247
O   -2.19950215 0.77810039 -1.72632706
O   -0.55591849 -2.5864312 -1.3072511
O   -2.92113173 -0.41644289 2.64484568
N   0.25316063 -1.3768651 0.46869943
N   -0.99582009 0.61192182 2.03125154
N   1.26398539 -1.16759756 -1.63683
N   -2.60593032 0.24148451 0.45227504
C   2.22253892 0.02234557 0.19569036
C   -0.54149643 1.32765764 -0.20522041
C   0.95030256 -0.2531406 0.92976011
C   0.04859562 1.02006893 1.08539855
C   3.39152293 0.62041512 0.91318984
C   0.14836191 1.99975606 -1.23257916
C   2.2879352 -0.31906957 -1.21712041
C   -1.75926455 0.6689495 -0.58806586
C   0.20861835 -1.77663528 -0.86041397
C   -2.22482534 0.06593954 1.73269966
H   1.20685348 -0.43914301 1.96341893
H   0.59931291 1.77700778 1.662697
H   3.1712373 0.66545696 1.99059206
H   4.24853868 0.0023053 0.67500765
H   3.61050152 1.64756577 0.66026362
H   -0.40919323 2.9326204 -1.52710203
H   1.18164012 2.33772087 -0.97066966
H   0.22620671 1.41789823 -2.11439102
H   -0.39610977 -1.86236654 1.12327815
H   -0.8342165 0.38866437 2.9920519
H   1.09685541 -1.32857475 -2.65726821
H   -3.54536498 -0.05542395 0.23100961
*
