! Engrad def2-TZVPPD wB97M-D3BJ 
%pal nprocs 8 end%pal nprocs 64 end 
%tddft Nroots 2 Iroot 2 
sf true 
end 
*xyz 0 3 
O   2.82672338 1.08703921 -0.71127864
O   -0.40415389 0.8107407 -2.04077155
O   0.64633652 -2.81899006 -1.49718418
O   -2.66387064 -1.71389107 0.97857592
N   0.69908156 -2.01565842 0.63036992
N   -2.41842888 0.51884168 1.37672226
N   1.85897797 -0.94378801 -1.04672674
N   -1.62469095 -0.40437875 -0.57508758
C   1.67374422 0.12062978 1.10544261
C   -1.02656479 1.8618502 -0.00727826
C   0.95355874 -0.98094374 1.48872699
C   -1.80326644 1.71142233 1.07094504
C   1.96602263 1.24908331 2.02576847
C   -0.29897764 3.12162191 -0.35946602
C   2.17318743 0.16553073 -0.2511506
C   -0.96539753 0.76058965 -0.97188801
C   1.03909582 -1.99061817 -0.70536996
C   -2.26685124 -0.62514503 0.62235244
H   0.561129 -1.08498348 2.47824506
H   -1.94776141 2.50418565 1.7967192
H   1.55385855 2.17678936 1.63365605
H   1.55642395 1.07266894 3.02967208
H   3.0457915 1.4062129 2.11398595
H   -0.6793987 3.53786 -1.2929275
H   -0.40302703 3.86931057 0.42437843
H   0.76872643 2.9082219 -0.50004434
H   0.0331675 -2.73413332 0.88987014
H   -2.92095682 0.40060219 2.24009158
H   2.07216124 -0.86312166 -2.02322108
H   -1.53478353 -1.20412157 -1.18834914
*
