! Engrad def2-TZVPPD wB97M-D3BJ 
%pal nprocs 8 end%pal nprocs 32 end 
 %tddft nroots 2 Iroot 1 
sf true 
end 
*xyz 0 3 
O   4.05963441879086 0.13965121070777 0.34304807325018
O   -1.71485150588565 1.52144052663339 -2.38216363146146
O   1.14313983819435 -3.01562714925954 -1.08496419584927
O   -3.62917934474847 -1.35088967540953 0.50766851685516
N   0.2978795757181 -1.27024872881976 0.09636060429949
N   -1.98520657184272 -0.00868053887028 1.31505404180488
N   2.58992543662275 -1.48463693978563 -0.24431579486433
N   -2.42069171388814 -0.11246939980744 -0.96887231596893
C   1.81831081041637 0.40567292785697 1.01717332221407
C   -0.91933734279951 1.57171116857694 -0.15995766524655
C   0.46454982168682 -0.26796706832603 1.12865324366273
C   -0.72816339524013 0.70357191017153 1.10077944814444
C   2.10036970417407 1.65524943695618 1.72415699866695
C   -0.64034742142197 3.0073363686342 -0.09805737170182
C   2.91913504442019 -0.28663535799479 0.36030743318468
C   -1.67689297948767 1.0247133047604 -1.27387192409007
C   1.31514287561412 -2.00237434585913 -0.4480663588253
C   -2.74333985821116 -0.54981158765202 0.31027212148906
H   0.44378006145207 -0.7718303596408 2.11814598628037
H   -0.60669380285919 1.38992315790452 1.93931585332559
H   3.16568299362762 1.75201931620338 1.91239133551885
H   1.80676500494928 2.53367908562908 1.12026907989681
H   1.53302363493788 1.73704410028967 2.65377434116799
H   -1.20426049308233 3.47892649330321 0.71620685216813
H   0.41593114740443 3.20407510385025 0.15052784508542
H   -0.88682702919285 3.49288891513643 -1.03631534630765
H   -0.57252354051638 -1.77389219332076 0.08095457691956
H   -2.22088589344374 -0.35619751676956 2.22803959908133
H   3.3326428412217 -1.97438625670627 -0.71704074167504
H   -3.00411231661075 -0.47725590839241 -1.70487392702528
*
