! Engrad wB97M-D3BJ def2-TZVPPD 
%pal nprocs 8 end%pal nprocs 16 end 
%tddft nroots 2 Iroot 2
 sf true 
end 
*xyz 0 3 
O   0.4245284242798 0.94673580986669 -0.00029254645963
C   0.7399872357711 -0.36048110388939 -2.537216567e-05
C   -0.66509647252215 -0.55730393650672 9.972245361e-05
H   1.27034736298204 -0.71315991285032 0.89121114063487
H   1.27008558569345 -0.71360030890393 -0.89124942200675
H   -1.21345302327991 -0.55748936407386 -0.92761140346853
H   -1.21335548969932 -0.55718284783422 0.9278678810121
*
