! Engrad def2-TZVPPD wB97M-D3BJ 
%pal nprocs 8 end%pal nprocs 32 end 
%tddft Nroots 2 Iroot 1 
sf true 
end 
*xyz 0 3 
O   0.04047124 1.01548233 -0.26186451
C   0.65450664 -0.19207969 0.15951669
C   -0.67493396 -0.96563049 0.10636381
H   1.14736959 -0.00801134 1.17343483
H   1.52399376 -0.53682417 -0.31129028
H   -0.91172829 -0.9424155 -0.97486597
H   -1.26065291 -1.02494267 1.09388414
*
