7
Coordinates from ORCA-job orca E -153.879505171749
  O          -0.06819514243554      0.75665326275411     -0.00003594881361
  C           0.77462661732789     -0.49168862573655     -0.00000827795132
  C          -0.74030548250891     -0.38159683386766      0.00001548541318
  H           1.29015080597122     -0.65183094112905      0.93219453002974
  H           1.29017556864004     -0.65188534948525     -0.93218593468762
  H          -1.27209669338261     -0.64907266016125     -0.91193111142584
  H          -1.27215567361210     -0.64897885237435      0.91195125743547
