! Engrad wB97M-D3BJ def2-TZVPPD 
%pal nprocs 8 end%pal nprocs 16 end 
%tddft nroots 2 Iroot 2
 sf true 
end 
*xyz 0 3 
O   0.81900173079363 1.01052482486538 0.0002262594179
C   0.77535163933364 -0.32785208920929 -1.716946012e-05
C   -0.64132356066298 -0.59922173079162 -5.265308365e-05
H   1.2612925521185 -0.77768544593964 0.88009377427145
H   1.26105525893093 -0.77715245033512 -0.88057534401517
H   -1.20402576074013 -0.53555146162301 -0.92258618539242
H   -1.20314943871076 -0.53352025050044 0.922911318262
*
