30
Coordinates from ORCA-job orca E -908.805346932436
  O           2.98917576738254      0.45940080439997     -1.07821009752296
  O          -0.40885049768061      1.54518117959733     -2.20183812848078
  O           0.41585943843623     -3.13732372317675     -0.25974512646346
  O          -3.04795622071629     -1.68643672123752     -0.53068200718532
  N           0.35406597545254     -1.46352400884169      1.26988955130532
  N          -2.17459784751025     -0.19018737602200      0.94257651408886
  N           1.47174768113369     -1.19435424260720     -0.76545719078875
  N          -1.44605370031104     -0.23874823251929     -1.25851242198395
  C           1.62333138861465      0.59411646546575      0.83388918226389
  C          -0.69317740041508      1.56026106933192      0.15539695861410
  C           0.36858903344220     -0.06236951885158      1.59182172622229
  C          -1.09475257403878      0.67742030534216      1.29134828015639
  C           2.42016462053804      1.62326728043983      1.52341606079361
  C          -0.59803242623718      3.02514496230651      0.30610232288430
  C           2.09822549327510     -0.01168973158988     -0.39946570357853
  C          -0.81276804717047      0.99883178853912     -1.19830724513168
  C           0.71182989051172     -2.00967156360685      0.06024682556306
  C          -2.28303985171464     -0.78602618388883     -0.28742273156820
  H           0.55630364906156      0.02716725621738      2.66364509926834
  H          -1.36935217040908      1.26156722075426      2.16452810040563
  H           3.23031608722139      1.96432602817277      0.88669310447312
  H           1.80932532600160      2.48146975725261      1.81553396237389
  H           2.83757621037277      1.21486890524214      2.45016463228532
  H          -1.59575523446914      3.44317745825346      0.48104752412943
  H           0.00796028592279      3.29876047963825      1.17220233412740
  H          -0.18375961943197      3.47298992073776     -0.59143644768472
  H          -0.23512050181142     -2.08092743383680      1.80173425207835
  H          -2.74825014795179     -0.60209990039601      1.65608202261150
  H           1.79688144315298     -1.62872524042593     -1.61363029760747
  H          -1.54728605065205     -0.64086700469091     -2.17701105564899
