! Engrad def2-TZVPPD wB97M-D3BJ 
%pal nprocs 8 end%pal nprocs 64 end 
%tddft 
 Iroot 2 Nroots 3 
sf true 
end 
*xyz 0 3 
O   -0.55855061 0.71583044 0.07985408
C   0.70662935 0.26064366 0.50363815
C   1.17394446 -0.85810209 -0.37961186
H   0.63161031 0.17735411 1.58110885
H   1.51935591 0.96763738 0.41411415
H   0.66890757 -1.84371828 -0.30281386
H   1.86978295 -0.74378444 -1.10855327
*
