! Engrad wB97M-D3BJ def2-TZVPPD 
%pal nprocs 8 end%pal nprocs 16 end 
%tddft nroots 2 Iroot 2
 sf true 
end 
*xyz 0 3 
O   0.85520433955665 1.01197196143383 0.0001367498309
C   0.77862476913661 -0.32551115981133 -0.00012302148425
C   -0.6396544496625 -0.6001773471189 -2.46607662e-05
H   1.25903539671783 -0.78348978628289 0.87939711416865
H   1.25908000607556 -0.78307700512912 -0.87982575611347
H   -1.20396522696278 -0.53538637752799 -0.9219608849589
H   -1.20300393329308 -0.53365407300161 0.92240045932326
*
