! Engrad def2-TZVPPD wB97M-D3BJ 
%pal nprocs 8 end%pal nprocs 64 end 
%tddft Nroots 2 Iroot 1 
sf true 
end 
*xyz 0 3 
O   2.98104474 1.16988282 -0.65066552
O   -0.59669904 0.57108862 -2.00886
O   1.13876946 -2.90326846 -1.7147405
O   -2.93777001 -1.40555415 1.28255229
N   0.6605954 -2.03565814 0.32123788
N   -2.36056975 0.76140654 1.63837588
N   1.94088662 -0.83562915 -1.11719412
N   -2.0735708 -0.25716475 -0.45416433
C   1.72947151 0.0076832 1.06608918
C   -1.04743121 1.8862098 -0.03772442
C   0.90877748 -1.08211572 1.31022136
C   -1.65350376 1.86102674 1.26549781
C   2.20228214 0.90666214 2.16263264
C   -0.15774545 3.08685711 -0.38211094
C   2.27449126 0.22907476 -0.24079442
C   -1.22597398 0.76334408 -0.94789703
C   1.27785437 -1.98408479 -0.88585509
C   -2.49736292 -0.39310639 0.83911008
H   0.38935051 -1.32277598 2.20558843
H   -1.71471889 2.70780395 1.97598398
H   2.10290857 1.91160874 1.92105506
H   1.62235667 0.66443775 3.03358731
H   3.21985113 0.74753793 2.33752808
H   -0.32265958 3.40403707 -1.43038671
H   -0.36159831 3.92035737 0.25785297
H   0.89098648 2.80941566 -0.35512592
H   0.08129604 -2.92894516 0.41036517
H   -2.82170952 0.6534013 2.5494529
H   2.20116969 -0.73785734 -2.08777163
H   -2.00063179 -1.21863854 -0.86427711
*
