! Engrad wB97M-D3BJ def2-TZVPPD 
%pal nprocs 8 end%pal nprocs 16 end 
%tddft nroots 2 Iroot 2
 sf true 
end 
*xyz 0 3 
O   0.36697830137089 0.93006150839828 -0.00034548909656
C   0.73512331010449 -0.3666205150644 -0.00013009362684
C   -0.67074552472979 -0.54436928567605 -0.00014532067911
H   1.26935612228399 -0.70419199484327 0.89325992805004
H   1.26970852925442 -0.70459329313556 -0.89316150731315
H   -1.21718309293053 -0.56687522793385 -0.92805539577289
H   -1.2159169357911 -0.56540602703629 0.92857787843851
*
