! Engrad def2-TZVPPD wB97M-D3BJ 
%pal nprocs 8 end%pal nprocs 64 end 
%tddft 
 Iroot 2 Nroots 3 
sf true 
end 
*xyz 0 3 
O   0.58875331 0.80773128 0.96471439
C   -0.06895917 -0.01191261 0.08809755
C   0.78993083 -0.66561025 -0.9036223
H   -0.85560129 0.51053231 -0.49174743
H   -0.74379527 -0.76188471 0.68393242
H   0.40285771 -0.57033206 -1.89272899
H   1.80421562 -1.01058436 -0.67585711
*
