! Engrad def2-TZVPPD wB97M-D3BJ 
%pal nprocs 8 end%pal nprocs 32 end 
 %tddft nroots 2 Iroot 2 
sf true 
end 
*xyz 0 3 
O   2.69765302571724 1.12958152077685 -0.6130554669982
O   -0.49198081448009 0.82876991165132 -2.15882587904987
O   0.7658382741726 -2.88606168806431 -1.50505925439342
O   -2.62969019100667 -1.6528373528313 0.98538134363131
N   0.60189052548303 -2.04073793224343 0.60313191440926
N   -2.13081130133764 0.51948359846601 1.45386460617076
N   1.80206580547429 -0.91413514314392 -1.0075149991457
N   -1.64460810178582 -0.35737112145169 -0.61449420049065
C   1.39396395129728 0.15291300968231 1.11066396525547
C   -0.81511841952844 1.83166053671559 -0.03028383169085
C   0.75238975833429 -0.97216034891937 1.4548232022284
C   -1.48157889729475 1.68810969934735 1.11896721654994
C   1.65083723855256 1.27506432769523 2.06432927520675
C   -0.08585571012415 3.07572380599526 -0.42482599029261
C   2.02579786384711 0.20453282831515 -0.20897220354405
C   -0.94205885877046 0.77459673219145 -1.03656386418841
C   1.03516912588869 -2.01837083419749 -0.7057410634005
C   -2.17403988498794 -0.58466664991458 0.6332458951379
H   0.30847678114532 -1.10360802184486 2.4300244919893
H   -1.49887271375001 2.45786452586549 1.87517529563093
H   1.40664912463603 2.23383822161164 1.61653985898753
H   1.06490919859516 1.14756364423156 2.97244405569775
H   2.70493317846267 1.31248165129425 2.33490561896434
H   -0.5230683492283 3.50200949019716 -1.32556987176274
H   -0.12710005621746 3.8155952594396 0.37161040683436
H   0.95501086582059 2.85203373909554 -0.64980184119852
H   -0.03905615172583 -2.7813799211642 0.83176686475706
H   -2.55649741561678 0.40225830969144 2.35529799285264
H   2.11221657907186 -0.84736552039577 -1.96442474675277
H   -1.68486443064437 -1.13038627809227 -1.26243879139543
*
