! Engrad def2-TZVPPD wB97M-D3BJ 
%pal nprocs 8 end%pal nprocs 64 end 
%tddft 
 Iroot 2 Nroots 3 
sf true 
end 
*xyz 0 3 
O   1.33579805 0.36595165 0.66944436
C   0.62330262 -0.05065831 -0.41557877
C   -0.87747673 -0.1854292 -0.07478912
H   0.89544307 -1.05103365 -0.61793369
H   0.8054634 0.62640985 -1.25212658
H   -1.59648481 0.28511526 -0.83981323
H   -1.11457492 -0.27065916 0.97486646
*
