! Engrad def2-TZVPPD wB97M-D3BJ 
%pal nprocs 8 end%pal nprocs 64 end 
%tddft Nroots 2 Iroot 2 
sf true 
end 
*xyz 0 3 
O   2.84570931 1.19740255 -0.41718739
O   -0.86201277 0.75621035 -2.28729301
O   1.1330828 -2.81654568 -1.67466947
O   -3.05417215 -1.28868454 1.30929597
N   0.59551465 -2.09320984 0.36651817
N   -2.36685822 0.85428126 1.55398555
N   1.93086607 -0.82562109 -1.10058542
N   -1.95603222 -0.24045931 -0.4713626
C   1.64899135 -0.08411935 1.18157264
C   -1.00392132 1.84621739 -0.15958357
C   0.79354746 -1.15585014 1.35369144
C   -1.43174542 1.79612678 1.19106919
C   1.91878382 0.87945869 2.22171254
C   -0.20015648 3.01526132 -0.7149349
C   2.26089552 0.20626403 -0.14781817
C   -1.19087461 0.82094198 -1.06999592
C   1.23752385 -1.91644738 -0.81585575
C   -2.46821372 -0.34560634 0.80946269
H   0.3932524 -1.42578511 2.30297709
H   -1.15869517 2.62585258 1.89302208
H   1.44228103 1.83341067 2.04995768
H   1.61700968 0.41213404 3.20545357
H   3.02031094 1.17762238 2.35347262
H   0.17214779 2.69513566 -1.64364266
H   -0.88509201 3.92915793 -0.83110065
H   0.61481864 3.16805015 0.03561109
H   -0.07661663 -2.90819638 0.51524545
H   -2.58163169 0.65913383 2.54085423
H   2.42410394 -0.91957912 -1.94229039
H   -1.9979126 -1.11858175 -1.02284591
*
