30
Coordinates from ORCA-job orca E -908.819404455468
  O           3.11292220059785      0.53874263005312     -0.86030920578997
  O          -0.43985051282315      1.34798647415959     -2.30784542457774
  O           0.42181009769068     -3.06778774490235     -0.54518958219184
  O          -3.14936588889320     -1.58986434671291     -0.25597269294077
  N           0.28779648170809     -1.51794305439831      1.10479681052289
  N          -2.12870319181464     -0.03063171131079      1.05190243144615
  N           1.59218931163882     -1.13935176199055     -0.78829274224396
  N          -1.50367829141931     -0.30665165006854     -1.17148261547312
  C           1.59196378108825      0.53931266039288      0.93937973958171
  C          -0.62408426026489      1.56623492110062      0.04799783494770
  C           0.37279644024427     -0.15546561323107      1.57740394061567
  C          -0.91873602154644      0.71453160302173      1.28146222096527
  C           2.30966542210004      1.58388002254233      1.69582325820904
  C          -0.59993020222601      3.04091104290529      0.11118079556448
  C           2.17782410302655      0.01278203473482     -0.29116672562749
  C          -0.81849508003594      0.90273429564730     -1.24621385168888
  C           0.72966556966523     -1.98440959871995     -0.10496460560503
  C          -2.32491247570850     -0.71917499891879     -0.12081976633149
  H           0.51892618682975     -0.20210909201569      2.65971426473583
  H          -1.08288421721696      1.37443120983662      2.13058919010527
  H           3.01285034430057      2.10273332881956      1.05241222039271
  H           1.62128515135860      2.29968570759964      2.14793444087171
  H           2.86805358338395      1.12501121342670      2.51952953710110
  H          -1.59879908800877      3.42132954958294      0.35360948248246
  H           0.07114129409129      3.39298707514145      0.89631097825647
  H          -0.29589372325560      3.45517078163515     -0.84520278889294
  H          -0.36836886411512     -2.14093461340707      1.54260107438666
  H          -2.69207563447051     -0.35498788067210      1.81797724158422
  H           1.97143733436155     -1.50663507822039     -1.64548546564426
  H          -1.66194985028645     -0.78751740603127     -2.04307999476182
