! Engrad def2-TZVPPD wB97M-D3BJ 
%pal nprocs 8 end%pal nprocs 64 end 
 %tddft nroots 2 Iroot 2 
sf true 
end 
*xyz 0 3 
O   2.81462201537297 1.10202629003869 -0.69669971754522
O   -0.4067081185525 0.78355506519792 -2.02908569182846
O   0.74080387156998 -2.85356158520905 -1.5235089411645
O   -2.7007551621977 -1.68268121219518 1.01285008954333
N   0.69549041169349 -2.02388761842937 0.59524382617175
N   -2.39212670631226 0.53999523753984 1.40941480401685
N   1.8910124475752 -0.9390770524662 -1.04918665092726
N   -1.64528605093179 -0.40014952681369 -0.55130212211944
C   1.60805365196701 0.122248476897 1.09247927328223
C   -0.98516465408252 1.85238831223295 0.00996598006292
C   0.91870725936385 -0.96938847885491 1.44840557172956
C   -1.75852508286819 1.72500070377966 1.09210576928919
C   1.88068673446066 1.26453478308559 2.01695932709708
C   -0.24594599871832 3.09795577145272 -0.36079328250366
C   2.16526524748455 0.17648936659381 -0.26016471594925
C   -0.96201990319985 0.74875589949847 -0.95377305415228
C   1.08410759433154 -2.0076517221632 -0.72810480765091
C   -2.28003345089885 -0.6038137856909 0.65156598165462
H   0.48977699650448 -1.08206129197351 2.43299656862074
H   -1.88596703026209 2.52181235120543 1.80893385613774
H   1.48959806014349 2.19444923275349 1.61058663745984
H   1.42627858633419 1.08823049640095 2.98949621518341
H   2.95184305042969 1.40364947647615 2.15011961551474
H   -0.63821975208796 3.51556015887753 -1.28616789205847
H   -0.32472409979745 3.84481929838402 0.42604583370937
H   0.80505411041528 2.87512144556353 -0.53760781607659
H   0.04172734444799 -2.74712848066882 0.84226527327094
H   -2.8838108367454 0.43338649000429 2.27796269727075
H   2.14220833121128 -0.86470278340156 -2.02275838394683
H   -1.5833488666508 -1.2008753181157 -1.16364424409219
*
