! Engrad def2-TZVPPD wB97M-D3BJ 
%pal nprocs 8 end%pal nprocs 64 end 
%tddft 
 Iroot 2 Nroots 3 
sf true 
end 
*xyz 0 3 
O   3.52892942 0.14052333 0.35851679
O   -0.388288 0.68779857 -2.800199
O   0.53631648 -2.91814032 -0.90048004
O   -3.94949178 -0.56179461 -0.18423944
N   -0.04284461 -1.48233636 0.75849731
N   -2.24338792 0.52158926 0.87000848
N   1.87771081 -1.04975424 -0.43556571
N   -2.05841678 -0.01910943 -1.3930059
C   1.4916569 0.22047726 1.57786872
C   -0.34086003 1.35540297 -0.50989499
C   0.04600092 -0.21358253 1.44612017
C   -0.84030849 0.91760887 0.82054298
C   1.99759385 1.16034102 2.5896841
C   0.83276845 2.26291138 -0.62883656
C   2.38934355 -0.25950901 0.54596395
C   -0.8574429 0.69602933 -1.67499588
C   0.77091953 -1.94800141 -0.28160992
C   -2.85232534 -0.03197081 -0.22698194
H   -0.31122628 -0.31556859 2.49617514
H   -0.76205094 1.77520693 1.51264172
H   3.07337467 1.13539415 2.61815313
H   1.63194558 2.1471856 2.32106932
H   1.50466486 1.0052442 3.5879978
H   1.76004666 1.68244479 -0.91831701
H   0.56326923 2.9622137 -1.45104381
H   1.00052872 2.78121177 0.28256703
H   -0.99773226 -1.85013458 0.79854199
H   -2.76489447 0.41190064 1.71235314
H   2.4501831 -1.21016552 -1.20860978
H   -2.20647585 -0.85323124 -2.10171151
*
