! Engrad def2-TZVPPD wB97M-D3BJ 
%pal nprocs 8 end%pal nprocs 64 end 
%tddft Nroots 2 Iroot 2 
sf true 
end 
*xyz 0 3 
O   2.42131044 1.33793064 -0.31891137
O   -0.77719022 0.76745304 -2.40090812
O   0.55854249 -2.63886751 -1.61892494
O   -2.41819966 -1.53224777 1.14831894
N   0.62605896 -2.20385265 0.6124426
N   -1.91887714 0.71374491 1.44323778
N   1.59358577 -0.73414263 -0.89596288
N   -1.61348473 -0.3224265 -0.58943578
C   1.53350518 -0.10688185 1.39676944
C   -0.94315754 2.00114214 -0.3442395
C   0.91245111 -1.34828428 1.64540373
C   -1.31119632 1.85546895 0.94765294
C   1.78861208 0.98054527 2.41022471
C   -0.26696747 3.19796613 -0.95119171
C   1.89975339 0.2671416 0.02951922
C   -1.11055079 0.83131912 -1.23268204
C   0.89358979 -1.92180645 -0.71064568
C   -2.02876087 -0.45629445 0.72425095
H   0.51953991 -1.60899807 2.62254715
H   -1.16440903 2.65687821 1.67292284
H   1.32481939 1.92514946 2.13065115
H   1.42806944 0.70334563 3.37635639
H   2.86234244 1.16346496 2.53062069
H   -0.75835136 3.60188239 -1.81966208
H   -0.15936935 4.02232729 -0.22864423
H   0.73988791 2.90112923 -1.27800472
H   0.09081997 -3.040354 0.76822729
H   -2.2254703 0.68364922 2.38125607
H   1.93759756 -0.48466804 -1.83812888
H   -1.61844108 -1.19278465 -1.09851303
*
