! Engrad def2-TZVPPD wB97M-D3BJ 
%pal nprocs 8 end%pal nprocs 64 end 
%tddft 
 Iroot 1 Nroots 3 
sf true 
end 
*xyz 0 3 
O   0.65361851 0.95047255 -0.64065241
C   0.86444365 -0.10696717 0.21782648
C   -0.36648331 -0.71962639 0.70509793
H   1.51933378 0.31852572 0.96379131
H   1.30395068 -0.90242971 -0.35238237
H   -0.62579084 -0.36951269 1.6901876
H   -0.97465987 -1.31806416 0.0008942
*
