! Engrad def2-TZVPPD wB97M-D3BJ 
%pal nprocs 8 end%pal nprocs 64 end 
%tddft 
Iroot 1 Nroots 3 
sf true 
end 
*xyz 0 3 
O   2.826117630760861 0.9203193716376641 -0.6418651916839178
O   -0.4907739410978034 1.038139148203013 -2.322447424817414
O   0.5049405952332209 -2.912164128218304 -1.0787332310586708
O   -2.9302589523324816 -1.5178573794225665 0.40615242468494206
N   0.4264824760455364 -1.8291034535559756 0.8576947216052083
N   -2.052665242805319 0.28989879335318114 1.269091708790602
N   1.6423866474725943 -0.9763238003536379 -0.8452320373213549
N   -1.608501694930795 -0.28848360846344157 -0.9053068573125316
C   1.4597527089305722 0.30962734087168003 1.0907868903253035
C   -0.6513968485900984 1.6708529605845377 -0.07007290925120613
C   0.5968829872650325 -0.6706508889330041 1.5877231297209342
C   -1.0486661607428003 1.1977431034007107 1.1877977222559213
C   1.9807004222700908 1.3056825854872705 1.9713814216959922
C   -0.38654474102172476 3.0531392366705137 -0.2693295194023519
C   2.0523045982521606 0.1318910821782663 -0.18712241221697343
C   -0.8836549935373618 0.8265856273122167 -1.2103774559847316
C   0.8310019446586681 -1.97274631048411 -0.41441095101576386
C   -2.2316508052707884 -0.5630309962315739 0.26548553039095385
H   0.5857297002582756 -0.8536537038290084 2.650433503602972
H   -1.1084891852415495 1.9226536117023272 1.9796077032364316
H   2.078293726032251 2.254448233299889 1.4501763961830898
H   1.397291240490326 1.5112020932171724 2.8689916852673942
H   2.97452339806367 1.135237833487387 2.380802530300024
H   -1.2997056763379902 3.485511082201171 -0.6835019558771538
H   -0.0733147931476265 3.676419217495854 0.5587191578184176
H   0.37423233919466303 3.211579724356416 -1.0303861918376347
H   -0.230478275827727 -2.5232003161408785 1.154620649215808
H   -2.480678308637384 0.08247128111662519 2.1459842990676488
H   1.9634667139515407 -1.0779548284017788 -1.792600605332457
H   -1.7647275093580168 -0.923232912541683 -1.6694627310494725
*
