! Engrad def2-TZVPPD wB97M-D3BJ 
%pal nprocs 8 end%pal nprocs 64 end 
%tddft 
Iroot 2 Nroots 3 
sf true 
end 
*xyz 0 3 
O   2.4673762674863 1.25214756145363 -0.37507793554929
O   -0.75650307757471 0.82261894134795 -2.36023150498943
O   0.53362038299425 -2.66870560152075 -1.60345493345098
O   -2.37843543359779 -1.54885265510851 1.16082047428132
N   0.65887438435207 -2.16421765701979 0.61229761486912
N   -1.90305927941033 0.65863150121782 1.44993366078766
N   1.6120192800559 -0.76577955223117 -0.95141586182816
N   -1.63373548320142 -0.31718125575068 -0.61217506907423
C   1.52550751317688 -0.07150693121421 1.35345751447861
C   -0.93885022885611 1.97378762937393 -0.2908389919866
C   0.91566967107949 -1.23857871926471 1.59515924956536
C   -1.36030510139859 1.83108520181148 0.97042622504276
C   1.81182857079593 0.95509441022737 2.40011384610186
C   -0.3079849982764 3.21552347769676 -0.83056181160358
C   1.92317530032551 0.22631052415822 -0.02326240137996
C   -1.08602971287285 0.8313959470633 -1.19544156820724
C   0.90909981567178 -1.92867367314246 -0.72176978681712
C   -2.00645069603037 -0.48893163638994 0.6999392098732
H   0.57879769518558 -1.51841618385888 2.58179948518537
H   -1.29220690319041 2.63162404716285 1.69129938813562
H   1.35036395425148 1.90528225318945 2.13493686733698
H   1.43715744337304 0.6355840073029 3.37014185318226
H   2.8812738254737 1.14007719393199 2.4809348121071
H   -0.83999404323334 3.56245272575778 -1.71379209661856
H   -0.30883435379667 4.00496311071512 -0.08245339580756
H   0.71999706878031 3.01149817779088 -1.12420811511774
H   0.04049121548264 -2.93448588723802 0.79990308199897
H   -2.17000240609812 0.56948420909641 2.41311267419974
H   1.75879124324897 -0.5324512779058 -1.92196505660214
H   -1.68905191419676 -1.13477988865298 -1.20302742811335
*
