30
Coordinates from ORCA-job orca E -908.923887754620
  O           2.91417952063377      1.23711928038937     -0.48425139664431
  O          -0.51197768774359      0.44975321646092     -1.91726055688053
  O           1.36142627197052     -2.85029293368488     -1.72543939449130
  O          -3.13631940608446     -1.37931536715220      1.29355281731658
  N           0.68011078440998     -1.97466943101602      0.26311111973498
  N          -2.27380273811229      0.70163139494038      1.64184965231430
  N           2.15301008091271     -0.81162566895907     -1.06656279904290
  N          -1.92384220054776     -0.37360019864882     -0.35713421004684
  C           1.35211554357738      0.19973282050311      0.97215784198105
  C          -0.81297099963153      1.72534340720879      0.06391082895534
  C           0.69432105639427     -0.95007914784247      1.17691282613887
  C          -1.50611645671521      1.76281053424850      1.20581349401579
  C           1.51597175526428      1.24401797610820      2.03079251983091
  C          -0.01925382783038      2.88160367810457     -0.45698421479529
  C           2.19534110502393      0.29383643306297     -0.22599916643369
  C          -1.03184627533714      0.58857110024267     -0.83185723221999
  C           1.39235005674489     -1.95034981014146     -0.91999258903220
  C          -2.49921346075827     -0.42965831883078      0.89174777221470
  H           0.11968601840370     -1.13071157961259      2.07339940626965
  H          -1.45914691313838      2.60347456059444      1.88062130461371
  H           1.37543904025560      2.24319828070910      1.63125907741268
  H           0.80891097558465      1.08140608482490      2.84133632954847
  H           2.52487396850623      1.20668946973011      2.43922133184956
  H          -0.43560291795498      3.22195449539015     -1.40326946843632
  H          -0.04022424389926      3.70769204341134      0.25056645468242
  H           1.01548293488189      2.60814426873098     -0.64374667247163
  H           0.12967535646674     -2.79943677529411      0.42184541802722
  H          -2.73414179539517      0.72614165588822      2.53353589593702
  H           2.67043891791244     -0.73950692003881     -1.92810323613694
  H          -2.06627446379458     -1.17887454932755     -0.94643315421132
