! Engrad def2-TZVPPD wB97M-D3BJ 
%pal nprocs 8 end%pal nprocs 64 end 
%tddft 
 Iroot 2 Nroots 3 
sf true 
end 
*xyz 0 3 
O   2.66387694 -0.8029689 -2.19366703
O   -1.64703987 1.6089757 -1.84207727
O   -1.44986386 -2.47519443 -0.87683571
O   -2.93933182 0.39122026 2.4084958
N   -0.13903384 -1.52874171 0.68025466
N   -0.68684557 1.01931144 2.10388038
N   0.65805769 -1.67549641 -1.47604831
N   -2.21510898 0.69439344 0.26751696
C   2.1721938 -0.65580347 0.12083442
C   -0.02389939 1.50317281 -0.22163127
C   0.96982169 -0.61844051 1.00027397
C   0.40691108 0.85169936 1.10442352
C   3.44920238 -0.1883604 0.49094247
C   0.91501685 2.25601074 -0.97408955
C   1.90794572 -1.08789893 -1.26978772
C   -1.33505481 1.29321864 -0.64946367
C   -0.43702544 -1.94656733 -0.55909749
C   -1.99630411 0.63788447 1.65631452
H   1.16987759 -0.91962324 2.06922927
H   1.22321537 1.54941741 1.45622639
H   4.21025131 -0.2278795 -0.27496635
H   3.37373163 0.88956288 0.84385856
H   3.86452328 -0.71401476 1.3591941
H   1.49816416 1.50640559 -1.54842606
H   0.42017376 2.76277583 -1.79218698
H   1.56009147 2.93854249 -0.4972629
H   -0.7738986 -1.80857818 1.43430423
H   -0.55320146 0.57010832 3.02951637
H   0.34531704 -1.70525866 -2.42054798
H   -3.18121787 0.54952664 0.05611973
*
