! Engrad def2-TZVPPD wB97M-D3BJ 
%pal nprocs 8 end%pal nprocs 64 end 
%tddft 
 Iroot 2 Nroots 3 
sf true 
end 
*xyz 0 3 
O   3.5611952 -0.30509615 -0.22926765
O   -0.26051757 0.50547704 -2.6677235
O   -0.3409328 -2.73941348 -0.68129328
O   -3.69018624 -0.59320991 0.1029989
N   -0.22065641 -1.36369864 1.06962175
N   -2.03488602 0.78262874 0.97781328
N   1.62453002 -1.42577768 -0.39644851
N   -1.95647809 -0.06874726 -1.24980555
C   1.71212353 0.2126593 1.23308716
C   -0.27963206 1.42835624 -0.49660486
C   0.24421702 -0.04102005 1.49232575
C   -0.64314117 1.14319355 0.93647814
C   2.38510164 1.15558214 2.08672541
C   0.6633407 2.49238011 -0.75921205
C   2.40478987 -0.43852752 0.20063698
C   -0.81172324 0.64549439 -1.58370357
C   0.268641 -1.88138209 -0.12494628
C   -2.66132072 0.03847649 -0.04510468
H   0.14918123 0.10482677 2.58123773
H   -0.47574642 2.05747636 1.54832087
H   3.39555316 1.38217663 1.80960697
H   1.70077226 2.01613967 2.14899341
H   2.57833158 0.7804001 3.11795259
H   1.59606396 2.04744587 -1.04064891
H   0.37243643 3.09141193 -1.72703977
H   0.81627912 3.1121079 0.13986029
H   -1.17604305 -1.65369815 1.36459135
H   -2.28970772 0.54629088 1.89686357
H   2.02461041 -1.92132568 -1.17529045
H   -2.32948983 -0.64567611 -1.96687217
*
