! Engrad def2-TZVPPD wB97M-D3BJ 
%pal nprocs 8 end%pal nprocs 64 end 
%tddft 
 Iroot 2 Nroots 3 
sf true 
end 
*xyz 0 3 
O   1.12863778 0.73282765 -0.58925623
C   0.05516809 -0.05648619 -0.24480522
C   0.05701662 -0.5231451 1.14940011
H   0.16249119 -0.92493401 -0.93911033
H   -0.7833918 0.60378068 -0.51881844
H   0.7581954 -1.39080336 1.39948453
H   -0.67650544 -0.32606301 1.82661331
*
