7
Coordinates from ORCA-job orca E -153.800741959772
  O           0.39915990725219      1.04595470207889     -0.00274075935751
  C           0.61847979301316     -0.27446202127968     -0.00055611991975
  C          -0.74399055698015     -0.73090724825697      0.00073604170580
  H           1.17088330489927     -0.62937542586512      0.88236225916465
  H           1.17082298924863     -0.63233149216633     -0.88228147596188
  H          -1.30732671787112     -0.75076671538397     -0.92230147608187
  H          -1.30582871956198     -0.74651179912683      0.92478153045055
