! Engrad def2-TZVPPD wB97M-D3BJ 
%pal nprocs 8 end%pal nprocs 64 end 
%tddft 
 Iroot 1 Nroots 3 
sf true 
end 
*xyz 0 3 
O   3.38576801 -1.0649877 -1.92265849
O   -2.17735882 1.89056391 -1.4300851
O   -1.0684728 -2.09584508 -1.71367571
O   -3.04148762 0.44061648 2.80259246
N   0.09971382 -1.62298437 0.21530576
N   -0.90140615 0.36962172 2.06813669
N   1.15009893 -1.52227434 -1.81357356
N   -2.65751163 0.92968794 0.59086949
C   2.20640754 -0.55408273 0.09733776
C   -0.34201996 1.32797051 -0.02771219
C   1.01526394 -0.72266445 0.91129845
C   0.19756083 0.66233219 1.17997432
C   3.42126296 -0.01170124 0.67591265
C   0.61636396 1.98046026 -1.00864042
C   2.35473456 -1.08434106 -1.24196796
C   -1.7691988 1.43155954 -0.38671738
C   -0.05097782 -1.75030025 -1.17019725
C   -2.26552311 0.61279348 1.91076609
H   1.26847898 -1.15076391 1.89148462
H   0.82245262 1.42372211 1.65507098
H   3.19076581 0.80464647 1.34357461
H   3.92334171 -0.8308343 1.21900651
H   4.18772606 0.29578044 -0.00750426
H   0.62513193 1.5633743 -2.0166209
H   0.32618843 2.96386235 -1.22731724
H   1.70382285 1.94801053 -0.56382978
H   -0.76103025 -1.8250065 0.68580635
H   -0.66198397 -0.22857683 2.84253779
H   1.23485838 -1.52219883 -2.77198635
H   -3.66198102 1.22335396 0.48407742
*
