! Engrad def2-TZVPPD wB97M-D3BJ 
%pal nprocs 8 end%pal nprocs 64 end 
%tddft Nroots 2 Iroot 2 
sf true 
end 
*xyz 0 3 
O   2.66831999 1.16582403 -0.5371762
O   -0.52753212 0.87735565 -2.29952226
O   0.65273419 -2.83798641 -1.47469871
O   -2.57501413 -1.65636845 0.97986665
N   0.64269332 -2.10000022 0.65519568
N   -2.10136122 0.56707991 1.4594119
N   1.71829485 -0.88093903 -0.98924229
N   -1.6527362 -0.32052186 -0.67635817
C   1.43763987 0.11024212 1.21004833
C   -0.80651558 1.88222853 -0.13592568
C   0.74199026 -1.05908266 1.5592537
C   -1.44218804 1.7050297 1.09840293
C   1.72021858 1.18189484 2.18060209
C   -0.1292874 3.09710888 -0.56536334
C   1.98495005 0.22282054 -0.16167467
C   -0.94904239 0.8108782 -1.14112938
C   0.9348514 -1.97835485 -0.6863516
C   -2.15988933 -0.55376955 0.61947137
H   0.32155722 -1.2590384 2.50725808
H   -1.35885337 2.41201448 1.89335616
H   1.61636911 2.14740471 1.72252951
H   1.02353847 1.07442164 3.01938231
H   2.72913537 1.08606787 2.59512219
H   -0.51602154 3.43649932 -1.52711495
H   -0.19191203 3.88610263 0.1950138
H   0.93160398 2.8400667 -0.71263236
H   -0.04217271 -2.815943 0.8120185
H   -2.45131449 0.35400937 2.40091957
H   1.89179168 -0.77897978 -1.9709508
H   -1.7417226 -1.11315043 -1.28683993
*
