! EnGrad wB97M-D3BJ def2-TZVPPD 
%pal nprocs 8 end%pal nprocs 16 end 
%tddft 
 sf true 
 nroots 2 Iroot 2 end 
*xyz 0 3 
O   0.2896066527424 0.98027523078797 -0.00212569158538
C   0.63817422847879 -0.31455084851652 -0.00045147268031
C   -0.73724058636323 -0.68481155204023 0.00053101917996
H   1.19528342074619 -0.63895380803123 0.88758983179522
H   1.19564420950279 -0.64101525033842 -0.88744164956433
H   -1.29026872436151 -0.71119951514302 -0.9256160444223
H   -1.28899920074543 -0.70814425671855 0.92751400727713
*
