! Engrad wB97M-D3BJ def2-TZVPPD 
%pal nprocs 8 end%pal nprocs 16 end 
%tddft nroots 2 Iroot 1
 sf true 
end 
*xyz 0 3 
O   0.20822915343563 0.87343012534129 -0.00013092857529
C   0.72532194171495 -0.38842773146862 3.468928856e-05
C   -0.68990280496043 -0.49947430639899 -0.00010739772369
H   1.2653693946673 -0.68140458168275 0.900807941408
H   1.26539663573448 -0.68153141905718 -0.9006997276109
H   -1.23004774148826 -0.59891472425525 -0.92653011665096
H   -1.22968352738095 -0.59814695763746 0.92662553986427
*
