! Engrad def2-TZVPPD wB97M-D3BJ 
%pal nprocs 8 end%pal nprocs 64 end 
%tddft 
Iroot 0 Nroots 3 
sf true 
end 
*xyz 0 3 
O   2.907419675787866 0.8310926238417108 -0.7019348435142735
O   -0.4265093539971989 1.091844755523531 -2.3067213091495047
O   0.49846778234982503 -2.9655038314135593 -0.9421657300308338
O   -3.0550422775103905 -1.4933632393027143 0.21586167542995324
N   0.36991560409138124 -1.7416632684689717 0.9135242997804002
N   -2.079607496205428 0.20571625203168503 1.2212193914898604
N   1.6496841790449337 -1.0271039982944665 -0.8232319321818369
N   -1.6012962805551696 -0.28192778766142385 -0.9767553405745166
C   1.4445575636870829 0.40604694029207106 1.0214253594441738
C   -0.579970817057964 1.6057882567343156 -0.01797301947033161
C   0.52101248132481 -0.5285566867631045 1.586280062842628
C   -0.980565097770656 1.0263657449768437 1.2390056837437664
C   2.022422834167353 1.411412811110903 1.8710397321657009
C   -0.4039564086898393 3.0192292039980324 -0.147469402790626
C   2.0816072586770726 0.10928307601753928 -0.22285892780979513
C   -0.8347177444663105 0.8259208780410497 -1.2102198515295939
C   0.810447937972113 -1.9813311864349494 -0.3346008350067138
C   -2.286703590702008 -0.582384324506066 0.1627198862346784
H   0.5887144935895102 -0.6851244535010392 2.6550976798970263
H   -1.0605543568130007 1.7386489887137513 2.0459426000919856
H   2.2610364804322254 2.301255144996659 1.295202764471763
H   1.407263893312362 1.734167987565205 2.709082417347164
H   2.9598995954166765 1.138869093633982 2.352620539158917
H   -1.3785066391891267 3.4426341404935483 -0.40051053678068027
H   -0.014168201680402427 3.5768389840675403 0.694542958667447
H   0.2488758556351746 3.265017689970241 -0.9807533436248124
H   -0.29560441434496265 -2.415786320781447 1.2391645221432057
H   -2.5503665619513303 -0.03512656356041468 2.0689516436241573
H   2.0090176402683393 -1.2138469246550967 -1.7439409113064028
H   -1.7801740348229356 -0.8634139866654232 -1.7779452327628942
*
