! Engrad def2-TZVPPD wB97M-D3BJ 
%pal nprocs 8 end%pal nprocs 64 end 
%tddft 
 Iroot 2 Nroots 3 
sf true 
end 
*xyz 0 3 
O   -0.25007423 0.9991893 0.36975687
C   0.52983574 -0.09212609 0.5265652
C   1.03730586 -0.77109718 -0.74507272
H   0.04642264 -0.76368858 1.24800191
H   1.34627088 0.14101987 1.17995902
H   0.71657717 -1.86393815 -0.98543743
H   1.56785429 -0.14102615 -1.4204012
*
