! Engrad def2-TZVPPD wB97M-D3BJ 
%pal nprocs 8 end%pal nprocs 64 end 
%tddft Nroots 2 Iroot 2 
sf true 
end 
*xyz 0 3 
O   4.04220114 -0.18149767 0.7552535
O   -2.13910803 1.84102182 -2.01642591
O   1.09069579 -2.8697874 -1.18273829
O   -3.4649783 -1.64946246 0.36033424
N   0.47039361 -0.86598538 -0.38428366
N   -1.93680664 -0.25077281 1.34263291
N   2.56212221 -1.70980783 0.18617744
N   -2.69375512 0.08989273 -0.80637313
C   1.82234742 0.42423153 1.06427423
C   -1.01724665 1.62037125 0.07014838
C   0.48197495 -0.20208851 0.90503686
C   -0.7630424 0.65349543 1.18520926
C   2.14750396 1.68174959 1.76713074
C   -0.36658719 2.93238817 0.02328592
C   2.89117348 -0.46525487 0.63421824
C   -1.98202527 1.24435507 -0.99043342
C   1.34564815 -1.90320534 -0.52272382
C   -2.71513263 -0.72040778 0.31541021
H   0.52833709 -0.95143256 1.71729785
H   -0.53995457 1.16773427 2.1536859
H   3.11921091 1.59853319 2.27450708
H   2.27114076 2.5540506 1.11707687
H   1.38833904 1.9720464 2.53653349
H   -0.08703478 3.27218335 1.03801267
H   0.5492771 2.7417935 -0.55311391
H   -1.0612241 3.63224945 -0.48550164
H   -0.39644407 -1.1136788 -0.86029079
H   -1.98675467 -0.77955341 2.16156141
H   3.32542927 -2.17781179 -0.28821831
H   -3.35302211 -0.26711647 -1.49987121
*
