! Engrad def2-TZVPPD wB97M-D3BJ 
%pal nprocs 8 end%pal nprocs 64 end 
%tddft Nroots 2 Iroot 2 
sf true 
end 
*xyz 0 3 
O   2.90005232 1.09172057 -0.78551525
O   -0.42663669 0.83910986 -2.08355247
O   0.65922461 -2.8508321 -1.43520543
O   -2.76259294 -1.72818697 0.8420902
N   0.65167224 -1.94683166 0.67734316
N   -2.52192784 0.46008788 1.42069457
N   1.96246687 -1.05538292 -0.96816653
N   -1.74308417 -0.3578233 -0.6554211
C   1.71536432 0.2205244 1.06441342
C   -1.02578129 1.80807841 0.04414462
C   0.96277942 -0.89563562 1.46719295
C   -1.83433634 1.63727152 1.12853835
C   2.1039016 1.30945907 1.99149079
C   -0.27367853 3.06877562 -0.20454447
C   2.22300296 0.22309549 -0.29885953
C   -1.00755806 0.77744411 -1.03010168
C   1.03575258 -2.01909734 -0.63579047
C   -2.34908188 -0.61415854 0.54456385
H   0.74515902 -0.98702977 2.52887406
H   -1.9536095 2.378198 1.90514903
H   1.28068231 2.02968198 2.06521935
H   2.30939816 0.9537726 3.02350003
H   2.98137084 1.83836257 1.66767863
H   -0.45299628 3.32602951 -1.27110576
H   -0.53845406 3.76384564 0.55588044
H   0.79921946 2.99302457 -0.09841548
H   -0.02346196 -2.66142839 0.95708554
H   -2.94475804 0.23861995 2.30932518
H   2.16153883 -1.0346222 -1.90460117
H   -1.71157039 -1.09495719 -1.33467248
*
