! Engrad def2-TZVPPD wB97M-D3BJ 
%pal nprocs 8 end%pal nprocs 64 end 
%tddft 
 Iroot 1 Nroots 3 
sf true 
end 
*xyz 0 3 
O   0.65756391 0.95884317 -0.61386489
C   0.88478369 -0.12368604 0.22667817
C   -0.37671323 -0.72598065 0.65442349
H   1.45496468 0.37587931 1.05455114
H   1.39477239 -0.97022516 -0.28810292
H   -0.67660557 -0.30617639 1.6072327
H   -1.08637019 -1.24015551 0.00855409
*
