7
Coordinates from ORCA-job orca E -153.773453807806
  O           0.55111419809645      1.09637843496914      0.27968614200479
  C           0.58204897435333     -0.19780260622792      0.02667808230977
  C          -0.75641672440651     -0.72988177209531      0.01635334439811
  H           1.20776221868348     -0.84843001620565      0.69929314251209
  H           1.03327225583996     -0.41975443576625     -0.96867747013544
  H          -1.18036738913905     -1.27491974059793     -0.81983817161869
  H          -1.43521353342767     -0.34398986407608      0.76650493052936
