7
Coordinates from ORCA-job orca E -153.925857182417
  O           0.94073519082035      1.18463405426264      0.07246512020525
  C           0.89133206333177      0.03844573377803     -0.30728222589222
  C          -0.31721952898399     -0.71371616829739      0.20775900905940
  H          -0.01733735520300     -1.59785554546717      0.77363911982281
  H           1.64347916394543     -0.42342045650836     -0.96332993734335
  H          -0.93400979602229     -1.07216156137203     -0.61875706353802
  H          -0.88508751904213     -0.03885685195149      0.83550597768614
