! Engrad def2-TZVPPD wB97M-D3BJ 
%pal nprocs 8 end%pal nprocs 32 end 
 %tddft nroots 2 Iroot 2 
sf true 
end 
*xyz 0 3 
O   2.76435569416685 1.64726404092856 0.81436845629022
O   -1.9825302793877 0.19875887825559 -2.17436636648662
O   1.57262430667379 -1.49834873406658 -2.22465460780816
O   -3.20315711523363 -0.24968623241092 2.17341447678043
N   0.57750273669763 -1.52247384240871 -0.17245713220241
N   -1.44187705897455 1.09449622372402 1.65345454990104
N   2.26574211772415 -0.01588795505069 -0.6366500453485
N   -2.4753731072561 -0.13071227793205 0.01224221948481
C   1.01955606786102 0.15911449406748 1.42277264483222
C   -0.60915824429766 1.27606712254786 -0.56209675355787
C   0.49206102954125 -1.0483404328451 1.0985079645321
C   -0.42498238025269 1.43519316185225 0.75827830454252
C   1.12964461570234 0.56874766092035 2.870374711928
C   0.19466121878205 1.97768998786765 -1.61484154032007
C   2.08830170597049 0.67793477485975 0.54662865844954
C   -1.70767269609002 0.43897623715053 -1.01687635105219
C   1.47531420034849 -1.04202672185189 -1.11452344394798
C   -2.43820149145916 0.20336182683739 1.34840228668533
H   -0.14249710341526 -1.60369776580593 1.77168057094962
H   0.2323394497687 2.21500949635558 1.1138843573196
H   0.97047938302016 1.63755316397592 3.00384461410563
H   0.41588913488475 0.02042528925228 3.48057398610191
H   2.13024689360968 0.36114305449296 3.24114675265208
H   -0.43135704474536 2.70372492874015 -2.13279772097359
H   1.03813530011435 2.5078799658001 -1.17876415341783
H   0.55213929267131 1.28352686571853 -2.37317371211034
H   0.03659448561086 -2.31561824422326 -0.47226402929669
H   -1.33302724485115 1.28358757539317 2.63277227393584
H   2.93742334516164 0.35775969711895 -1.28852803199826
H   -3.25057721234627 -0.70642223926399 -0.27575293997037
*
