7
Properties=species:S:1:pos:R:3:REF_forces:R:3 REF_energy=-4185.271440813726 pbc="F F F"
O        0.29468636       0.98627719      -0.00378681      -2.63288703      -1.74951344      -0.00119227
C        0.63689944      -0.31834509       0.00052508       2.95363554      -0.61784307       0.04051485
C       -0.74451571      -0.69271180      -0.00062880      -0.16579882       2.96886448       0.42187096
H        1.19972736      -0.62180684       0.89736999       0.01691687      -0.19054886      -0.09654354
H        1.20169249      -0.62883758      -0.88978775       0.06122954      -0.19368479       0.03822273
H       -1.28941427      -0.70443566      -0.91928866      -0.21962955      -0.11446157      -0.28137293
H       -1.28748045      -0.70536084       0.93348721      -0.01455057      -0.10472802      -0.12144417
7
Properties=species:S:1:pos:R:3:REF_forces:R:3 REF_energy=-4183.806035149209 pbc="F F F"
O        0.57805865       1.19318274       0.22862811      -0.78868658      -3.75063916      -0.58557557
C        0.57931584      -0.25139546       0.00741572       1.08797586       1.95631690       0.33228655
C       -0.79704413      -0.77481486       0.08157733       0.98973055       0.55415183      -0.01242007
H        1.26833582      -0.81712455       0.68253067      -0.54201325       0.35693418       0.46211200
H        1.03003908      -0.54663576      -0.94460319      -0.26465078       0.42255232      -0.50022487
H       -1.12054799      -1.54764823      -0.60484737      -0.05308297       0.29384281      -0.00061785
H       -1.46483744      -0.35102776       0.79244775      -0.43110568       0.17141530       0.30406175
7
Properties=species:S:1:pos:R:3:REF_forces:R:3 REF_energy=-4187.219164311861 pbc="F F F"
O        0.01052629       0.79389862       0.00039332      -0.36949185      -2.82050273      -0.01101967
C        0.72487673      -0.44245325      -0.00180894       0.00990127       1.08897905       0.27921216
C       -0.72889499      -0.45130557      -0.00073130       0.00825358       1.27527257       0.16125145
H        1.24396678      -0.64606607       0.93654582      -0.00718618       0.05897776      -0.37472607
H        1.26259129      -0.64461486      -0.92209685       0.02414675       0.02817375       0.17158576
H       -1.26822872      -0.64469804      -0.92637326       0.08452672       0.15205109       0.26268138
H       -1.27349976      -0.64918613       0.93123815       0.25021908       0.20390810      -0.48902653
7
Properties=species:S:1:pos:R:3:REF_forces:R:3 REF_energy=-4186.74806507952 pbc="F F F"
O       -0.08961976       0.76997174       0.00096894       3.21882724       0.09394768      -0.02174516
C        0.78407554      -0.52240044      -0.00295693      -3.01259495       2.68858935       0.21965098
C       -0.74019757      -0.38055363      -0.00005437       0.22255869      -2.58095671      -0.00365609
H        1.31139457      -0.63650043       0.94752383      -0.24775595       0.01077068      -0.51614145
H        1.31646076      -0.63462625      -0.94479421      -0.21605061      -0.02126812       0.34106272
H       -1.27805094      -0.64345092      -0.91993325       0.02138266      -0.07604699       0.20719630
H       -1.28188925      -0.63352606       0.92009338       0.01390895      -0.10943937      -0.22656700
7
Properties=species:S:1:pos:R:3:REF_forces:R:3 REF_energy=-4184.522258255659 pbc="F F F"
O        0.41408490       1.06391977      -0.01310988      -2.52989375      -1.23010909       0.06618955
C        0.61188311      -0.28163453       0.00138500       3.40413162       0.47158915       0.10994016
C       -0.75652623      -0.75622882       0.00819875      -0.04924342       2.47176626       0.08389970
H        1.20880391      -0.54911861       0.87600438      -0.13623391      -0.56272361       0.34634090
H        1.23333744      -0.54999431      -0.85114885      -0.15587514      -0.70715126      -0.43626023
H       -1.30236316      -0.71313296      -0.91159776      -0.31438330      -0.22438355      -0.22245725
H       -1.28762723      -0.72627003       0.94307816      -0.21370695      -0.21531758       0.05118431
7
Properties=species:S:1:pos:R:3:REF_forces:R:3 REF_energy=-4188.390935590239 pbc="F F F"
O        0.50907493       1.33881805       0.07586773       0.56068451      -2.65714633      -1.14448765
C        0.57769415       0.16493080      -0.28866573      -1.15797801       3.66622590       1.91463502
C       -0.43319135      -0.82376291       0.21111111       0.31631522      -0.85807930      -0.28682911
H        0.07627179      -1.64552929       0.73201041      -0.11809113       0.18050352      -0.11091899
H        1.36436292      -0.15514477      -0.95965074       0.46194736      -0.43424067      -0.47821877
H       -0.96246151      -1.26415178      -0.63360316       0.00977314      -0.05110595      -0.04888850
H       -1.13389317      -0.33188164       0.86448172      -0.06845008       0.16103149       0.16215918
7
Properties=species:S:1:pos:R:3:REF_forces:R:3 REF_energy=-4186.303300608334 pbc="F F F"
O        0.11567004       0.89428153      -0.00156514      -1.93608744      -3.60189397      -0.03430709
C        0.68378396      -0.40420510      -0.00031214       0.69943346       1.13146374       0.01687520
C       -0.75413190      -0.59145866       0.00146585       1.94509988       3.59358878       0.17810993
H        1.25419177      -0.59933776       0.91040502      -0.04992964      -0.33365045      -0.18333519
H        1.24010403      -0.59594212      -0.91953595      -0.01315921      -0.37409785       0.16927642
H       -1.26710915      -0.68727505      -0.92398800      -0.35597097      -0.16909844      -0.35693078
H       -1.26824902      -0.64398252       0.93439171      -0.28101643      -0.24692518       0.21058450
7
Properties=species:S:1:pos:R:3:REF_forces:R:3 REF_energy=-4183.791270443291 pbc="F F F"
O       -0.24128692       0.94827611      -0.50270615       1.22610548      -1.07459742      -2.09745425
C        0.46035594      -1.15685199       0.05279824       0.91020518      -1.34550967      -1.80538967
C       -0.23006396       0.03095169       0.47941525      -3.30738821       2.07683651       1.94468661
H        1.57262024      -1.25659205       0.05674326      -1.19420659       0.20681125      -0.10060366
H       -0.15247089      -1.95601538      -0.47614956       1.10228176       1.26691835       0.67329326
H       -1.29180924      -0.20590775       0.71024937       0.12586855      -0.57193580       0.11681788
H        0.03990567       0.60391233       1.34748696       1.13717078      -0.55847883       1.27614519
7
Properties=species:S:1:pos:R:3:REF_forces:R:3 REF_energy=-4182.547222240004 pbc="F F F"
O        0.44559883       1.31965713       0.00172126      -0.76791505      -4.03699157      -0.05594844
C        0.41954825      -0.29170894      -0.02277354      -0.61671074       0.72420043      -1.72288343
C       -0.85029190      -1.20047109       0.02450141       0.08292091       4.11717027      -0.79812624
H        0.89120937      -0.58946511       0.86172968       1.46011039       0.20047223       1.31578850
H        1.04304011      -0.56921778      -0.91134178      -0.43048902       0.58254569       0.84684179
H       -1.44708018      -1.24873289      -0.88389945       0.30002704      -0.82143000      -0.12522802
H       -1.46496165      -0.94647406       0.87542052      -0.02471262      -0.76186614       0.53827698
7
Properties=species:S:1:pos:R:3:REF_forces:R:3 REF_energy=-4186.851716539423 pbc="F F F"
O        0.69771923       1.44347206      -0.08318823      -0.22361077      -9.24494805       4.63127668
C        0.61147669       0.15140824       0.43911488      -1.89315673       7.91982241      -7.22997500
C       -0.41438590      -0.81382750      -0.31650929      -0.07121858       1.93550050       1.10833552
H        1.31401157      -0.33064376       1.07151389       0.77244547       0.15082023       1.13145213
H        0.16026320      -1.60232074      -0.75721235       0.36705493      -0.50921869      -0.23443552
H       -0.94765276      -0.22913084      -1.10109489       0.60212692      -0.41491156       0.74279296
H       -1.15832888      -1.25343088       0.36977223       0.44428342       0.16102022      -0.14412684
7
Properties=species:S:1:pos:R:3:REF_forces:R:3 REF_energy=-4187.9441104618245 pbc="F F F"
O        0.50785223       1.41372946       0.11848055       0.20333929      -6.68931963      -2.28248156
C        0.58190788       0.19174500      -0.29284583      -1.70638541       5.35467176       3.11325051
C       -0.44539241      -0.93388573       0.15995289       0.93136517       0.92700949      -0.45346080
H        0.12559789      -1.74517387       0.65945107      -0.35085723       0.54045625      -0.31145831
H        1.43420959      -0.10734813      -0.88319928       0.43376631      -0.28264149      -0.55513504
H       -1.04600486      -1.37693831      -0.66759978       0.64247466       0.50240533       0.45395621
H       -1.08206774      -0.39854304       0.85951260      -0.14528393      -0.34905407       0.03806052
7
Properties=species:S:1:pos:R:3:REF_forces:R:3 REF_energy=-4185.685410609233 pbc="F F F"
O        0.20481300       0.94886467       0.00196572      -2.29471182      -3.21213303      -0.11547675
C        0.65463209      -0.37161049      -0.00651952       2.00317630       0.84436734       0.19919222
C       -0.75501081      -0.65931390       0.00178521       1.13350047       3.58559476       0.80972923
H        1.23883217      -0.58932807       0.89661579      -0.15038365      -0.42104028      -0.12923332
H        1.24358222      -0.60669602      -0.89948691      -0.16567770      -0.32643272       0.05189305
H       -1.28433835      -0.66975739      -0.90939728      -0.51003497      -0.22106665      -0.71536940
H       -1.28755126      -0.65670409       0.93938878      -0.01348985      -0.25358676      -0.10190754
7
Properties=species:S:1:pos:R:3:REF_forces:R:3 REF_energy=-4187.056962217548 pbc="F F F"
O        0.01403647       0.81050856       0.00212202      -0.23087977      -3.78654958      -0.07591698
C        0.72276538      -0.46267412      -0.00029910       0.05969290       2.14889158      -0.41186730
C       -0.73299994      -0.46604126      -0.00042932       0.40310986       2.36181287      -0.80247286
H        1.23131528      -0.61676479       0.94977472       0.15165642      -0.24476327      -0.37337110
H        1.27998497      -0.61570042      -0.95187442      -0.39541725      -0.13100589       0.97874654
H       -1.26343839      -0.60568751      -0.95677734       0.16678358      -0.08476695       0.70861465
H       -1.27203331      -0.59287062       0.92515462      -0.15472884      -0.26855625      -0.02330998
7
Properties=species:S:1:pos:R:3:REF_forces:R:3 REF_energy=-4183.205091881804 pbc="F F F"
O        0.51644379       1.25123578      -0.02533060      -0.81279690      -3.29028149       0.14400072
C        0.42816198      -0.26269282      -0.01174138      -0.24502982       0.38595049      -0.09403487
C       -0.87758918      -1.09574214       0.03936058      -0.06378428       2.99856172      -0.19804578
H        1.02427845      -0.64617022       0.80801711       0.39456170       0.53006110       0.39989322
H        0.99126536      -0.57014137      -0.89593979      -0.00602259       0.32252756      -0.19533454
H       -1.50034641      -1.07830934      -0.86265377       0.32069587      -0.50932766       0.30361118
H       -1.42040026      -1.12832916       0.99238593       0.41562023      -0.42956987      -0.36080011
7
Properties=species:S:1:pos:R:3:REF_forces:R:3 REF_energy=-4187.319997368294 pbc="F F F"
O        0.28420379       1.41972834       0.03197654       3.84608106      -7.48396783      -0.68990625
C        0.75347825       0.17895921      -0.05791497      -5.22518694       6.76436035       1.39334554
C       -0.35048123      -0.94817051       0.04040195      -0.83680778       2.96861667       0.97302815
H        0.10020493      -1.81894099      -0.35472383      -0.29084003      -1.24519883      -0.34261482
H        1.81843365      -0.07733557      -0.20712240      -0.28452133       0.22586849       0.02486246
H       -1.20488817      -0.44696652      -0.54656883       1.33993111      -1.34059174       0.54070736
H       -0.81967149      -1.05409468       1.11007428       1.45315885       0.11029978      -1.90460328
7
Properties=species:S:1:pos:R:3:REF_forces:R:3 REF_energy=-4185.968228582465 pbc="F F F"
O        0.18942711       0.92064988       0.00064435      -2.53099699      -2.36683370      -0.03821060
C        0.65998951      -0.35909048      -0.00216171       2.44226963      -0.41545831      -0.15631495
C       -0.73903383      -0.62530428       0.00117426       0.41189138       3.34202825       0.15691268
H        1.22356977      -0.63025121       0.89244797       0.09757879      -0.20096761       0.06321258
H        1.23011019      -0.63623742      -0.90086649      -0.06138739      -0.10856254       0.12914747
H       -1.27489064      -0.68061625      -0.91916220      -0.21829370      -0.12117566      -0.28356306
H       -1.26884888      -0.67377609       0.93068215      -0.13784195      -0.13493469       0.12858726
7
Properties=species:S:1:pos:R:3:REF_forces:R:3 REF_energy=-4187.980791518949 pbc="F F F"
O        0.50858649       1.36847923       0.08700918       0.70386193      -6.20516454      -2.25175783
C        0.58106364       0.13042043      -0.30247494      -1.83174954       7.54693064       3.58001605
C       -0.43520003      -0.82993130       0.21155743       0.49754057      -1.02398150      -0.57850807
H        0.07531070      -1.65959997       0.72810957      -0.25693075       0.22987794      -0.20464912
H        1.36654773      -0.13985290      -0.95698320       0.91228178      -0.69866905      -0.90092172
H       -0.97729892      -1.24438533      -0.64179249       0.07131006      -0.16571315       0.03771892
H       -1.13550382      -0.33948992       0.85654236      -0.09179813       0.31568597       0.32345374
7
Properties=species:S:1:pos:R:3:REF_forces:R:3 REF_energy=-4183.642042028162 pbc="F F F"
O       -0.06720622       1.13490808       0.34774549       0.54894232      -2.04153168      -1.15311665
C        0.59307372      -0.11826416       0.08164231      -0.75000106       2.72965349       3.05624116
C       -0.32136745      -1.02768568      -0.51061203      -2.45583947      -0.91138771       1.49021426
H        0.78993859      -0.49071885       1.14444368       0.12654908      -0.33625251      -0.90685959
H        1.55720498       0.07582186      -0.33626300       0.62201337      -0.10180308      -0.73913950
H       -1.29790766      -1.23874378       0.04012401       1.48778798       0.74673651      -0.88273255
H       -0.13984974      -1.71510509      -1.29651031       0.41968587      -0.08613142      -0.86655659
7
Properties=species:S:1:pos:R:3:REF_forces:R:3 REF_energy=-4184.65920294838 pbc="F F F"
O        0.41151252       1.05536827      -0.00577382      -2.45053021      -1.05162024       0.04128185
C        0.61463716      -0.27430975       0.00031121       3.30678008      -0.44343320       0.10590177
C       -0.74795491      -0.73929734       0.00187055      -0.83898321       2.31169077       0.19064162
H        1.17728321      -0.60510270       0.88491853       0.01172146      -0.24118532       0.11343209
H        1.19014234      -0.60411554      -0.86805547       0.07818963      -0.35306978      -0.24851385
H       -1.30932222      -0.74569045      -0.91568145      -0.09811700      -0.11230707      -0.12111078
H       -1.30164604      -0.74100676       0.93135773      -0.00319506      -0.10664504      -0.08236273
7
Properties=species:S:1:pos:R:3:REF_forces:R:3 REF_energy=-4188.084980633227 pbc="F F F"
O        0.71203177       1.38522179       0.08188602      -1.06243201      -6.30226577      -1.44074483
C        0.55989539       0.15350692      -0.26617171       0.48620342       6.78648754       1.92106532
C       -0.45347346      -0.81259295       0.22625184      -1.05949149      -0.35787937      -0.23962105
H        0.04568386      -1.68104395       0.66052160       0.00819155       0.05287669      -0.06821736
H        1.21719138      -0.21357410      -1.02961001       0.66212520      -0.53551534      -0.69220442
H       -1.06373502      -1.18057790      -0.63471079       0.64919543       0.22099094       0.47515742
H       -1.15748433      -0.38663938       0.93925547       0.31675657       0.14088669       0.04599551
1
Properties=species:S:1:pos:R:3 config_type=IsolatedAtom REF_energy=-1028.9771505969138 energy=-1028.9771505969138 free_energy=-1028.9771505969138 dipole="-4.603841731905418e-08 3.016310100213894e-08 2.69880377387559e-08" pbc="F F F"
C        0.00000000       0.00000000       0.00000000
1
Properties=species:S:1:pos:R:3 config_type=IsolatedAtom REF_energy=-13.568778219076226 energy=-13.568778219076226 free_energy=-13.568778219076226 dipole="-0.0012331030238405477 -0.0019389931429228675 -6.989901774337778e-06" pbc="F F F"
H        0.00000000       0.00000000       0.00000000
1
Properties=species:S:1:pos:R:3 config_type=IsolatedAtom REF_energy=-2041.370068087562 energy=-2041.370068087562 free_energy=-2041.370068087562 dipole="2.4871328896500532e-08 1.3758607474659871e-08 -4.233417684510729e-09" pbc="F F F"
O        0.00000000       0.00000000       0.00000000
