7
Properties=species:S:1:pos:R:3:REF_forces:R:3 REF_energy=-4183.349851537403 pbc="F F F"
O       -0.33500610       0.99547582      -0.47749570       0.89811845      -0.48568380      -0.14130961
C        0.28786033       0.10835727       0.38727323      -0.89683651       3.47622404       0.90782173
C        0.08119417      -1.25028252       0.08424712      -1.04074700      -0.88554289      -3.75271351
H       -0.24467532       0.24628642       1.34678486       0.19128086       0.03972589       0.60403737
H        1.33239087       0.43501341       0.65198294      -0.41760204      -0.21468223      -0.72707961
H       -0.46224445      -1.64963216      -0.78864126       0.49428333       0.58090758       0.63840621
H        0.31738295      -1.85706221       0.84356174       0.77254581      -2.51074175       2.46697243
7
Properties=species:S:1:pos:R:3:REF_forces:R:3 REF_energy=-4184.076332958529 pbc="F F F"
O        0.06458649       1.34366141       0.25436267       0.31092322      -0.12464917      -0.26039114
C        0.69073244       0.32639513      -0.28539261      -0.87982027      -0.25700670      -0.07948940
C       -0.08846746      -1.00202522      -0.00063474       3.36554237       1.55962555       2.04875385
H        0.64981702      -1.80962980      -0.04091220      -0.44772915       0.05164387      -0.30356487
H        1.67054717       0.54543151      -0.73816285      -0.51763227      -0.49481027       0.23211764
H       -0.95432673      -1.14685338      -0.54424796      -1.60483300      -0.27901944      -1.40231322
H       -0.35204012      -0.86558628       1.06121657      -0.21976946      -0.46257821      -0.23366636
7
Properties=species:S:1:pos:R:3:REF_forces:R:3 REF_energy=-4180.34764168923 pbc="F F F"
O        0.01052629       0.79389862       0.00039332       0.90934592       2.37507027      -0.01171228
C        0.72487673      -0.44245325      -0.00180894      -0.22365303      -1.15181676       0.20001316
C       -0.72889499      -0.45130557      -0.00073130      -0.92699693      -2.78614871       0.14423687
H        1.24396678      -0.64606607       0.93654582       0.06117842       0.38311010       0.19772147
H        1.26259129      -0.64461486      -0.92209685       0.11760327       0.35932375      -0.33508445
H       -1.26822872      -0.64469804      -0.92637326      -0.05468310       0.40710788      -0.26561288
H       -1.27349976      -0.64918613       0.93123815       0.11661671       0.42810361       0.07043537
7
Properties=species:S:1:pos:R:3:REF_forces:R:3 REF_energy=-4183.932560184171 pbc="F F F"
O        0.74282463       1.41351389       0.13753148      -0.25531498      -3.07358264      -1.09087054
C        0.63541803       0.10568304      -0.30021618      -0.69160537       0.78198225       0.89244639
C       -0.55760704      -0.81269996       0.19716595       1.89969074       1.07669648      -0.93783625
H       -0.15407155      -1.61180988       0.82895946      -0.16389045       0.12478960      -0.10648603
H        1.27550015      -0.30562792      -1.09831736      -0.09744652       0.87257099       0.44725739
H       -1.01483123      -1.24811619      -0.71528790      -0.05786963       0.33006805       0.77829808
H       -1.19065391      -0.17093858       0.78425697      -0.63886033      -0.11235660       0.01762169
7
Properties=species:S:1:pos:R:3:REF_forces:R:3 REF_energy=-4184.047477046077 pbc="F F F"
O        0.75880175       1.37081039      -0.48598050      -0.84863103      -2.03209338       0.98402659
C        0.35993002       0.40803100       0.38720787       0.24964580      -0.00606371      -1.32933179
C       -0.22908760      -0.97765957       0.11430266       0.65995736      -0.51117309      -0.19050451
H        0.39956950       0.77418280       1.38899362       0.04747375       0.28429034       0.67661852
H        0.39028460      -1.71500331      -0.48710488      -0.11323184       1.06813397       0.65663888
H       -1.15660584      -0.96519621      -0.44378087      -0.43888520       0.40839233      -0.25282559
H       -0.47731722      -1.50187671       1.06665944       0.44637859       0.78083990      -0.54244083
7
Properties=species:S:1:pos:R:3:REF_forces:R:3 REF_energy=-4182.2588343887655 pbc="F F F"
O        0.18942711       0.92064988       0.00064435       2.89660278       4.81331642      -0.02335348
C        0.65998951      -0.35909048      -0.00216171      -0.44012952      -1.03812135      -0.16431126
C       -0.73903383      -0.62530428       0.00117426      -2.39530527      -4.67404920       0.14232202
H        1.22356977      -0.63025121       0.89244797       0.22593017       0.32694742       0.02535904
H        1.23011019      -0.63623742      -0.90086649       0.05659544       0.41775378       0.17230513
H       -1.27489064      -0.68061625      -0.91916220      -0.21206786       0.08275079      -0.26136234
H       -1.26884888      -0.67377609       0.93068215      -0.13430077       0.06258472       0.10889751
7
Properties=species:S:1:pos:R:3:REF_forces:R:3 REF_energy=-4183.129549322185 pbc="F F F"
O        0.19898713       1.08646712       0.00322677       1.21865218      -0.64078003      -0.38427400
C        0.63422062      -0.24731424      -0.10734284      -1.48150390      -0.01796484       1.02061473
C       -0.76000506      -0.98097083       0.10859470       3.55089045       1.35638079      -0.46398426
H        1.41577957      -0.42669007       0.67235744      -0.66844846       0.16299666      -0.09896409
H        1.24959863      -0.39578715      -1.01750996      -0.80003261       0.06352088      -0.01404824
H       -1.28613699      -0.97475077      -0.81303198      -1.00365752      -0.40479375      -0.28474160
H       -1.11891758      -0.57555437       1.03513017      -0.81755196      -0.51806560       0.21876875
7
Properties=species:S:1:pos:R:3:REF_forces:R:3 REF_energy=-4181.211202247894 pbc="F F F"
O        0.09837710       0.85844283      -0.00051294       3.33070472       6.15270274       0.01203014
C        0.68671219      -0.39418655       0.00017371      -0.46702636      -1.25755217      -0.06776678
C       -0.73379626      -0.54702800       0.00075817      -2.89619055      -5.67771902      -0.06646766
H        1.23975750      -0.64267614       0.90496941       0.18250503       0.36570528      -0.01704330
H        1.23782248      -0.63203463      -0.91094071       0.15027014       0.34050085       0.07298761
H       -1.26297275      -0.67293268      -0.92662940      -0.12924853       0.05003989      -0.02197865
H       -1.25975404      -0.66138654       0.92907126      -0.16643768       0.03079148       0.08858503
7
Properties=species:S:1:pos:R:3:REF_forces:R:3 REF_energy=-4184.152428816048 pbc="F F F"
O        0.71203177       1.38522179       0.08188602      -0.18647411       0.54041159       0.33237457
C        0.55989539       0.15350692      -0.26617171       0.04542724      -0.59441091      -0.17745208
C       -0.45347346      -0.81259295       0.22625184      -0.84871637      -0.21957317      -0.41534187
H        0.04568386      -1.68104395       0.66052160      -0.16380245      -0.04022385       0.14650250
H        1.21719138      -0.21357410      -1.02961001       0.58237722       0.13007761      -0.49413992
H       -1.06373502      -1.18057790      -0.63471079       0.33757682       0.13203705       0.54889305
H       -1.15748433      -0.38663938       0.93925547       0.23482932       0.05292448       0.06012941
7
Properties=species:S:1:pos:R:3:REF_forces:R:3 REF_energy=-4183.108543966249 pbc="F F F"
O        0.51644379       1.25123578      -0.02533060      -1.20607861      -3.46115879       0.32607258
C        0.42816198      -0.26269282      -0.01174138       0.75902600       0.90386615      -0.45557123
C       -0.87758918      -1.09574214       0.03936058      -0.20541830       2.53299293      -0.15086497
H        1.02427845      -0.64617022       0.80801711       0.16760898       0.49352175       0.60114913
H        0.99126536      -0.57014137      -0.89593979      -0.25506213       0.07695789      -0.27489514
H       -1.50034641      -1.07830934      -0.86265377       0.33808865      -0.30189935       0.36020433
H       -1.42040026      -1.12832916       0.99238593       0.40657659      -0.23699190      -0.40714947
7
Properties=species:S:1:pos:R:3:REF_forces:R:3 REF_energy=-4183.489354095158 pbc="F F F"
O       -0.21269535       0.91047059      -0.61133757       1.02993132       0.57210609       0.10916342
C        0.64215791       0.06700615       0.11221319      -3.13633375      -1.15144864       0.33604887
C       -0.28390903      -1.03837276       0.58425812       1.98554306      -0.64987015      -0.81241441
H        1.20474893       0.60595506       0.86262316      -0.01767699       0.47548600       0.28144857
H        1.32989753      -0.39866615      -0.53236740       1.32844700      -0.18185229      -1.12995214
H       -1.20783372      -0.81601938       0.99189375      -1.50500173       0.72129166       0.98819985
H       -0.25196755      -2.01144013       0.09574221       0.32212519       0.20759483       0.22425761
7
Properties=species:S:1:pos:R:3:REF_forces:R:3 REF_energy=-4183.557174974078 pbc="F F F"
O        0.41408490       1.06391977      -0.01310988       0.95277329       1.63047800       0.01094916
C        0.61188311      -0.28163453       0.00138500      -0.11069919      -0.05873852       0.14530258
C       -0.75652623      -0.75622882       0.00819875      -0.64632504      -1.30030185       0.11742999
H        1.20880391      -0.54911861       0.87600438       0.13197315       0.01846741       0.21583161
H        1.23333744      -0.54999431      -0.85114885       0.11800354      -0.10375396      -0.32427043
H       -1.30236316      -0.71313296      -0.91159776      -0.27321587      -0.08527239      -0.18968660
H       -1.28762723      -0.72627003       0.94307816      -0.17122594      -0.09707860       0.02317989
7
Properties=species:S:1:pos:R:3:REF_forces:R:3 REF_energy=-4183.572532953736 pbc="F F F"
O       -0.06720622       1.13490808       0.34774549       0.56487040      -0.90180753      -0.11039585
C        0.59307372      -0.11826416       0.08164231      -0.39213929       1.82594886       2.35353692
C       -0.32136745      -1.02768568      -0.51061203      -2.65508564      -1.67456440       0.72704938
H        0.78993859      -0.49071885       1.14444368      -0.00516099       0.43896962      -0.67082603
H        1.55720498       0.07582186      -0.33626300       0.51177815      -0.23294881      -0.71432173
H       -1.29790766      -1.23874378       0.04012401       1.48430292       0.66371096      -0.86729617
H       -0.13984974      -1.71510509      -1.29651031       0.48805524      -0.12132767      -0.72229929
7
Properties=species:S:1:pos:R:3:REF_forces:R:3 REF_energy=-4184.080036655763 pbc="F F F"
O        0.50785223       1.41372946       0.11848055      -0.14315746      -0.14310408       0.08896787
C        0.58190788       0.19174500      -0.29284583      -1.06999048      -1.62473245      -0.11686214
C       -0.44539241      -0.93388573       0.15995289       1.06806844       1.02492014      -0.23343484
H        0.12559789      -1.74517387       0.65945107      -0.46651769       0.51833171      -0.19627135
H        1.43420959      -0.10734813      -0.88319928       0.38488704       0.16439484      -0.11340316
H       -1.04600486      -1.37693831      -0.66759978       0.48815112       0.56306749       0.46183182
H       -1.08206774      -0.39854304       0.85951260      -0.25137744      -0.50216998       0.11032625
7
Properties=species:S:1:pos:R:3:REF_forces:R:3 REF_energy=-4183.939769130191 pbc="F F F"
O        0.72770055       1.34326751       0.30083300       0.13239570      -2.33392626      -1.27663352
C        0.69344290       0.11040857      -0.27484725       0.09192190       0.10176271      -0.53414549
C       -0.57379066      -0.74928946       0.00899493       0.09044653       2.13092552       1.57074735
H       -0.42933869      -1.41350712       0.88082955      -0.00455164       0.16815876      -0.47089314
H        1.43079829      -0.21774451      -1.13334613      -1.43233811       1.22424495       1.88848086
H       -0.88726084      -1.27927406      -0.84645292       0.07377323      -0.80696527      -0.99412971
H       -1.45579352      -0.08908005       0.26986909       1.05031652      -0.48289594      -0.18962221
7
Properties=species:S:1:pos:R:3:REF_forces:R:3 REF_energy=-4183.655527906448 pbc="F F F"
O        0.55428876       1.09863009       0.27921040       0.88480109       1.66403802       0.78099466
C        0.58069148      -0.20350455       0.02239025       0.25815491      -1.74363058      -0.79943385
C       -0.76113314      -0.73199970       0.01754870      -1.59876731      -0.56279707       0.21493863
H        1.21963774      -0.81634765       0.71703067       0.08539222       0.87368518      -0.06167865
H        1.04829631      -0.39716834      -0.95540950       0.37780886       0.04484404      -0.02670361
H       -1.18732126      -1.27947419      -0.80405706       0.05944706      -0.14448217      -0.08519716
H       -1.43331035      -0.33458661       0.76501187      -0.06496617      -0.13029917      -0.02224892
7
Properties=species:S:1:pos:R:3:REF_forces:R:3 REF_energy=-4183.449750395199 pbc="F F F"
O        0.52177002       0.89364749       0.67527455      -0.97583086       0.52390777       0.21341601
C        0.45472237      -0.31897014       0.12768648       1.08249187      -0.03389266      -2.42533544
C       -0.71094742      -0.49893460      -0.88464702       0.23564205       0.16482796       1.34155358
H        0.58596701      -1.11173738       0.80263914      -0.84110709      -1.51243105       1.61166190
H        1.48311805      -0.46481176      -0.32755055      -0.49915855       0.15141040      -0.77134114
H       -1.19344667       0.43052338      -1.13114320       0.06660707       0.19365286      -0.34151535
H       -1.36012939      -1.39300613      -0.98724035       0.93045944       0.51236002       0.36717020
7
Properties=species:S:1:pos:R:3:REF_forces:R:3 REF_energy=-4182.762013480968 pbc="F F F"
O       -0.16513580       0.97852900      -0.23925181      -1.87125541       1.36013270       0.69345192
C        0.77646556      -0.84654497       0.03604854      -2.92117383      -1.68468711      -0.13654732
C       -0.60322546      -0.28235779       0.23057917       1.47010817       0.84796314       0.12263735
H        1.27813864      -1.30222428       0.83571385       1.00464339      -0.41853142       0.65814777
H        0.86139363      -1.05271725      -1.00072216       1.19501428      -0.25706538      -0.49198934
H       -1.42834463      -0.50119329      -0.50131525       0.56945542      -0.38852297       0.58538759
H       -1.04096598      -0.33221436       1.28996614       0.55465649       0.53454196      -1.42414949
7
Properties=species:S:1:pos:R:3:REF_forces:R:3 REF_energy=-4184.094004163309 pbc="F F F"
O        0.50907493       1.33881805       0.07586773      -0.12913893       3.88890557       1.15013997
C        0.57769415       0.16493080      -0.28866573       0.25236449      -3.51475146      -1.17707889
C       -0.43319135      -0.82376291       0.21111111       0.25839506      -0.61894760      -0.17417172
H        0.07627179      -1.64552929       0.73201041      -0.23400410       0.17239967       0.10093707
H        1.36436292      -0.15514477      -0.95965074       0.27087115       0.07426763      -0.13886683
H       -0.96246151      -1.26415178      -0.63360316      -0.21021395      -0.01005943       0.02195047
H       -1.13389317      -0.33188164       0.86448172      -0.20125980       0.01501712       0.22332425
7
Properties=species:S:1:pos:R:3:REF_forces:R:3 REF_energy=-4182.626721010491 pbc="F F F"
O        0.20481300       0.94886467       0.00196572       2.64707597       3.28396352      -0.06896639
C        0.65463209      -0.37161049      -0.00651952      -0.86456548       0.15244001       0.19736784
C       -0.75501081      -0.65931390       0.00178521      -1.26973933      -3.85740530       0.77044136
H        1.23883217      -0.58932807       0.89661579      -0.00964810       0.14294002      -0.16377846
H        1.24358222      -0.60669602      -0.89948691      -0.03789722       0.20728259       0.08105664
H       -1.28433835      -0.66975739      -0.90939728      -0.47829434       0.03670965      -0.68917031
H       -1.28755126      -0.65670409       0.93938878       0.01304793       0.03404430      -0.12753772
1
Properties=species:S:1:pos:R:3 config_type=IsolatedAtom REF_energy=-1028.9771505969138 energy=-1028.9771505969138 free_energy=-1028.9771505969138 dipole="-4.603841731905418e-08 3.016310100213894e-08 2.69880377387559e-08" pbc="F F F"
C        0.00000000       0.00000000       0.00000000
1
Properties=species:S:1:pos:R:3 config_type=IsolatedAtom REF_energy=-13.568778219076226 energy=-13.568778219076226 free_energy=-13.568778219076226 dipole="-0.0012331030238405477 -0.0019389931429228675 -6.989901774337778e-06" pbc="F F F"
H        0.00000000       0.00000000       0.00000000
1
Properties=species:S:1:pos:R:3 config_type=IsolatedAtom REF_energy=-2041.370068087562 energy=-2041.370068087562 free_energy=-2041.370068087562 dipole="2.4871328896500532e-08 1.3758607474659871e-08 -4.233417684510729e-09" pbc="F F F"
O        0.00000000       0.00000000       0.00000000
