! Engrad def2-TZVPPD wB97M-D3BJ 
%pal nprocs 8 end%pal nprocs 64 end 
%tddft 
 Iroot 2 Nroots 3 
sf true 
end 
*xyz 0 3 
O   -0.51462106 0.00587917 0.8162212
C   0.49559934 0.53911488 0.05933583
C   1.34372692 -0.38396416 -0.71340117
H   1.15136105 1.06741276 0.77792285
H   0.04129798 1.38330522 -0.72510021
H   1.53246188 -1.39236927 -0.20463228
H   1.48973082 -0.24101868 -1.7715593
*
