! Engrad def2-TZVPPD wB97M-D3BJ 
%pal nprocs 8 end%pal nprocs 32 end 
%tddft Nroots 2 Iroot 2 
sf true 
end 
*xyz 0 3 
O   0.01403647 0.81050856 0.00212202
C   0.72276538 -0.46267412 -0.0002991
C   -0.73299994 -0.46604126 -0.00042932
H   1.23131528 -0.61676479 0.94977472
H   1.27998497 -0.61570042 -0.95187442
H   -1.26343839 -0.60568751 -0.95677734
H   -1.27203331 -0.59287062 0.92515462
*
