! Engrad def2-TZVPPD wB97M-D3BJ 
%pal nprocs 8 end%pal nprocs 64 end 
%tddft 
 Iroot 1 Nroots 3 
sf true 
end 
*xyz 0 3 
O   2.97278859 -0.83191044 -2.09992726
O   -2.26527809 1.23005018 -1.66500886
O   -1.23239737 -2.36480706 -1.17437712
O   -2.76796334 0.7574319 2.7981075
N   0.21681809 -1.75469495 0.50991985
N   -0.60797906 1.0000602 2.03020506
N   0.86973673 -1.51308736 -1.63706382
N   -2.45813734 0.92282329 0.59884464
C   2.27806615 -0.6369631 0.19435554
C   -0.32714472 1.29811445 -0.27764808
C   1.04102897 -0.6163995 0.97408039
C   0.35901218 0.84913838 1.01106911
C   3.48950268 0.04039169 0.67560064
C   0.4620824 1.75812337 -1.45142718
C   2.08092085 -1.0112419 -1.2484933
C   -1.7279655 1.11570092 -0.59654437
C   -0.18036422 -1.88361543 -0.82078736
C   -1.95428878 0.85416214 1.90966331
H   1.28138283 -0.8866939 2.03508664
H   1.21019329 1.4401577 1.13916119
H   3.52406949 1.12538673 0.29335483
H   3.47595408 0.09527946 1.78948237
H   4.42286733 -0.47892986 0.34113508
H   0.17766897 1.27007029 -2.4160262
H   0.18922855 2.82187442 -1.44927833
H   1.53962511 1.64771029 -1.27071386
H   -0.57821262 -2.01745984 1.04677705
H   -0.33464647 1.01464404 3.03318761
H   0.719365 -1.52640852 -2.62777848
H   -3.48201796 0.89356433 0.46946665
*
