! Engrad wB97M-D3BJ def2-TZVPPD 
%pal nprocs 8 end%pal nprocs 16 end 
%tddft nroots 2 Iroot 2
 sf true 
end 
*xyz 0 3 
O   0.25917297124685 0.8932575138975 -0.00017198224606
C   0.7277182027667 -0.38035758775092 2.451134099e-05
C   -0.68301513920383 -0.51500549066581 -0.00018846006024
H   1.26692516881361 -0.68843501671705 0.89798394492271
H   1.26699830081887 -0.6887662769655 -0.89781581054629
H   -1.22530752512163 -0.58734225656438 -0.92754643462964
H   -1.22456328946472 -0.5863836762374 0.92771423121853
*
