! Engrad def2-TZVPPD wB97M-D3BJ 
%pal nprocs 8 end%pal nprocs 64 end 
%tddft 
 Iroot 1 Nroots 3 
sf true 
end 
*xyz 0 3 
O   3.72908274 0.11271151 0.48332038
O   -0.78340682 0.84071718 -2.67477473
O   0.51805636 -2.38659977 -1.41810678
O   -3.62039638 -1.26522366 0.27875336
N   0.13467696 -1.35774644 0.63045761
N   -2.22241291 0.34630683 1.05642529
N   2.12122051 -1.03042312 -0.5731287
N   -2.23726708 -0.21419799 -1.2427568
C   1.55487482 0.33111573 1.39225163
C   -0.58428226 1.3543049 -0.44303194
C   0.1979332 -0.17910992 1.45656689
C   -0.86014419 0.91595748 0.96027412
C   1.94975368 1.39402291 2.28799665
C   0.54794869 2.29791718 -0.71535916
C   2.50560903 -0.19419349 0.49189672
C   -1.20979449 0.67288792 -1.54208804
C   0.90917963 -1.69881483 -0.54327264
C   -2.79427187 -0.44606419 0.06291979
H   -0.2249215 -0.47063329 2.45875021
H   -0.80934038 1.72463489 1.64588251
H   2.75502942 1.05861175 3.08534819
H   2.2803458 2.23074828 1.63257361
H   1.13315449 1.81934206 2.79143959
H   1.52871957 1.82785631 -0.68136053
H   0.35219285 2.79420228 -1.69492136
H   0.56515902 2.9553392 0.08289643
H   -0.73043525 -1.7896841 0.55386869
H   -2.45640778 -0.0131211 1.94073133
H   2.84223058 -1.37151572 -1.12711404
H   -2.72771612 -0.63194594 -2.05120235
*
