! Engrad def2-TZVPPD wB97M-D3BJ 
%pal nprocs 8 end%pal nprocs 64 end 
%tddft Nroots 2 Iroot 1 
sf true 
end 
*xyz 0 3 
O   4.06313643 0.13665747 0.35081864
O   -1.7213895 1.52148581 -2.38591016
O   1.13915864 -3.00945494 -1.08180168
O   -3.63155842 -1.3432902 0.50916927
N   0.29712553 -1.27273473 0.09174241
N   -1.97872985 -0.01126414 1.30820954
N   2.58568251 -1.48910986 -0.24435601
N   -2.41434046 -0.11002055 -0.9687076
C   1.8185069 0.39767581 1.02580469
C   -0.9186666 1.57030507 -0.15242853
C   0.46958928 -0.2767341 1.12611974
C   -0.73779999 0.70608828 1.09337608
C   2.09887268 1.66365873 1.72461492
C   -0.63487554 3.00765286 -0.09947522
C   2.91457174 -0.28571382 0.3651477
C   -1.67928188 1.02425353 -1.27090907
C   1.321034 -2.0014634 -0.45189705
C   -2.74087556 -0.54691417 0.30427838
H   0.42732237 -0.73988289 2.11779262
H   -0.59228831 1.39738362 1.92211622
H   3.18375903 1.74730401 1.9017412
H   1.83611303 2.50920274 1.13756362
H   1.54976259 1.72786303 2.66711245
H   -1.22485582 3.44251937 0.71130278
H   0.40233441 3.20506416 0.13714205
H   -0.88439232 3.49694432 -1.03361911
H   -0.58069039 -1.77012626 0.06483071
H   -2.21269689 -0.36590977 2.23246035
H   3.31231708 -1.98833622 -0.71259366
H   -3.00245876 -0.47117645 -1.70512292
*
