! Engrad def2-TZVPPD wB97M-D3BJ 
%pal nprocs 8 end%pal nprocs 64 end 
%tddft 
 Iroot 2 Nroots 3 
sf true 
end 
*xyz 0 3 
O   1.19067242 0.96830331 0.06232761
C   0.12328125 0.20288832 0.43171144
C   -0.09290918 -1.10037228 -0.30962476
H   -0.68860037 0.99544723 0.41122492
H   0.26047105 0.16254571 1.54899274
H   0.53738808 -1.87416901 0.08561984
H   -0.72917675 -1.20697082 -1.20302137
*
