! Engrad def2-TZVPPD wB97M-D3BJ 
%pal nprocs 8 end%pal nprocs 32 end 
 %tddft nroots 2 Iroot 2 
sf true 
end 
*xyz 0 3 
O   2.93245866178956 1.24842486856461 -0.48875800154464
O   -0.52834513836537 0.42643386601788 -1.87807791013434
O   1.4069192973387 -2.83656673553709 -1.77350218124657
O   -3.13352318959287 -1.37186613512644 1.36675473435446
N   0.73999856443999 -1.99859329677719 0.23576702168745
N   -2.32959498664488 0.74113307348337 1.65740056252057
N   2.19914265038127 -0.80764677235514 -1.08633563070291
N   -1.92986515526663 -0.38722419329984 -0.30275973985876
C   1.43822795860295 0.14958043126012 0.99112505721276
C   -0.90482190489161 1.76739711436154 0.04625128314548
C   0.76068421603405 -0.99178010963755 1.16940487242531
C   -1.58078648245237 1.80597143152544 1.19811910201451
C   1.55940767027704 1.20989798920197 2.03800951747474
C   -0.09726924097656 2.90818162496763 -0.48443326174115
C   2.24574326829761 0.28275004429133 -0.22600891026961
C   -1.06927359376479 0.58943807553105 -0.80636105729265
C   1.44291237603306 -1.95117331365722 -0.95223340602712
C   -2.51788011495288 -0.41854219336138 0.94125398595263
H   0.17788828734551 -1.18109559937628 2.05892887133469
H   -1.54454673167297 2.65898147370932 1.85822451553702
H   1.36651118566934 2.19522121543084 1.62389639750269
H   0.8635069060556 1.02519626022616 2.85361725408674
H   2.57080798018322 1.22994162232879 2.44120706989282
H   -0.49520801488594 3.23726817214509 -1.44255370539833
H   -0.11643660937471 3.74624578803728 0.20886349637297
H   0.9367561198826 2.61682073389421 -0.6526865964253
H   0.19393066980568 -2.82802912482198 0.38399259480714
H   -2.78730128382152 0.77612033384325 2.55002117537366
H   2.69467096777976 -0.71202683982141 -1.95841915485381
H   -2.04211433325287 -1.21545980504839 -0.86610795620049
*
