! Engrad def2-TZVPPD wB97M-D3BJ 
%pal nprocs 8 end%pal nprocs 64 end 
%tddft 
 Iroot 1 Nroots 3 
sf true 
end 
*xyz 0 3 
O   1.14844117 0.70152992 -0.58434139
C   0.05231598 0.02158407 -0.20262258
C   0.05306006 -0.57293405 1.11790153
H   0.14157238 -0.76120048 -0.95862933
H   -0.83570606 0.55970754 -0.52729807
H   0.79492809 -1.27842269 1.28816577
H   -0.89995559 -0.41024026 1.76822208
*
