! Engrad def2-TZVPPD wB97M-D3BJ 
%pal nprocs 8 end%pal nprocs 64 end 
%tddft Nroots 2 Iroot 1 
sf true 
end 
*xyz 0 3 
O   2.37737587 -0.38987616 -1.07877476
O   0.221824 2.78932532 -2.20896182
O   0.18975384 -3.87038668 0.79147661
O   -2.06641268 -0.95375082 -1.55678223
N   0.42810805 -2.01648347 2.05016606
N   -1.2697414 -0.2297227 0.47883392
N   1.04676649 -1.99744825 -0.18166971
N   -0.74329265 0.89313658 -1.53409213
C   1.22933015 0.1683019 0.94173712
C   -0.75256788 2.7303043 0.11412485
C   0.63688814 -0.63186162 2.15764954
C   -0.15143505 0.29918469 1.15917542
C   2.26771204 1.23495142 1.23337988
C   -1.83037845 3.71108315 0.32597657
C   1.62985267 -0.72012575 -0.19117745
C   -0.24419584 2.17162102 -1.19837829
C   0.52043694 -2.72873885 0.86614521
C   -1.42676469 -0.16609414 -0.88296668
H   0.79825763 -0.25872218 3.17077679
H   -0.3543168 1.1562684 1.75975785
H   2.53705481 1.65109539 0.28292812
H   1.89730315 2.01830558 1.92709309
H   3.11734967 0.71192264 1.65757568
H   -2.75575423 3.20051376 0.61637158
H   -1.56771415 4.45872032 1.11524629
H   -1.98747487 4.21043361 -0.64001845
H   -0.11329655 -2.5175311 2.71929812
H   -1.69439986 -1.02421096 0.89003879
H   1.20324232 -2.60560842 -0.9712461
H   -0.77830271 0.71484677 -2.55364691
*
