! EnGrad wB97M-D3BJ def2-TZVPPD 
%pal nprocs 8 end%pal nprocs 16 end 
%tddft 
 sf true 
 nroots 2 Iroot 2 end 
*xyz 0 3 
O   0.18481782204118 0.9102215542807 -0.00069235829339
C   0.66050700163311 -0.35285160085596 -4.398061895e-05
C   -0.73150585253522 -0.61429012390449 5.441399909e-05
H   1.21691153477783 -0.64742005825936 0.89434849276693
H   1.21677199327286 -0.6477845628274 -0.89441556444949
H   -1.27301291694152 -0.68451167301848 -0.9281392488064
H   -1.27228958224823 -0.68176353541502 0.92888824540223
*
