! Engrad def2-TZVPPD wB97M-D3BJ 
%pal nprocs 8 end%pal nprocs 32 end 
%tddft Nroots 2 Iroot 2 
sf true 
end 
*xyz 0 3 
O   0.28420379 1.41972834 0.03197654
C   0.75347825 0.17895921 -0.05791497
C   -0.35048123 -0.94817051 0.04040195
H   0.10020493 -1.81894099 -0.35472383
H   1.81843365 -0.07733557 -0.2071224
H   -1.20488817 -0.44696652 -0.54656883
H   -0.81967149 -1.05409468 1.11007428
*
