! Engrad def2-TZVPPD wB97M-D3BJ 
%pal nprocs 8 end%pal nprocs 32 end 
%tddft Nroots 2 Iroot 1 
sf true 
end 
*xyz 0 3 
O   0.06458649 1.34366141 0.25436267
C   0.69073244 0.32639513 -0.28539261
C   -0.08846746 -1.00202522 -0.00063474
H   0.64981702 -1.8096298 -0.0409122
H   1.67054717 0.54543151 -0.73816285
H   -0.95432673 -1.14685338 -0.54424796
H   -0.35204012 -0.86558628 1.06121657
*
