! Engrad def2-TZVPPD wB97M-D3BJ 
%pal nprocs 8 end%pal nprocs 64 end 
%tddft 
 Iroot 1 Nroots 3 
sf true 
end 
*xyz 0 3 
O   1.30018246 0.65885829 -0.38257312
C   0.43008902 0.26731473 0.53818689
C   -0.53366606 -0.80366079 0.09873771
H   -0.21080336 1.17158079 0.80437232
H   0.97409777 -0.03172947 1.42457923
H   -0.77097236 -0.75847318 -1.00105771
H   -0.62792939 -1.7673954 0.53251404
*
