7
Coordinates from ORCA-job orca E -153.931009416206
  O           0.50810981373858      1.32744440083328      0.07202924611623
  C           0.57646565627604      0.17896839689544     -0.28321311031645
  C          -0.43144010802493     -0.82182964388266      0.21010328883860
  H           0.07372749261340     -1.63467958699881      0.73410062910741
  H           1.36746704610369     -0.16881250529340     -0.97020205380557
  H          -0.95674611727864     -1.27117146052745     -0.63408392048145
  H          -1.13538378342813     -0.32831960102639      0.87126592054123
