! Engrad def2-TZVPPD wB97M-D3BJ 
%pal nprocs 8 end%pal nprocs 32 end 
 %tddft nroots 2 Iroot 2 
sf true 
end 
*xyz 0 3 
O   3.25192023198798 0.63582386951652 -0.58798252816589
O   -0.53660703117632 1.1046072043261 -2.4182851941418
O   0.49649746376537 -2.94607163692126 -0.87969276641324
O   -3.32185487104226 -1.40596147482627 0.0810485905516
N   0.25441097437788 -1.56786606435264 0.90412824037084
N   -2.0660306325477 0.14932588356447 1.17627098115704
N   1.78708243815737 -1.08187588945558 -0.77492526036281
N   -1.69014895454726 -0.32694848646729 -1.08062333772613
C   1.5518995615401 0.48714632630723 1.04404485005354
C   -0.55305136133428 1.52077027708462 -0.0788100384594
C   0.37647539686274 -0.27792330656505 1.5366534364194
C   -0.73034737189402 0.73031399946167 1.23830981848025
C   2.15802151116015 1.54256017774481 1.88323134926508
C   -0.54577104833331 2.99803671607441 -0.09075338746694
C   2.281687851397 0.05104603329412 -0.15063734753909
C   -0.88238754208675 0.78209825056031 -1.30327615949524
C   0.8081739604981 -1.93627987268752 -0.29167859236972
C   -2.42731671960576 -0.59341838209738 0.0757758664379
H   0.43763762719676 -0.43855715200646 2.6167768181436
H   -0.7296133824697 1.45717482922147 2.04777352216635
H   2.81919777973793 2.16393107496694 1.28810616911617
H   1.40704449306445 2.15999909991779 2.37536380977675
H   2.7544582084556 1.07839932693606 2.6765291493282
H   -1.53690610733666 3.38563584419582 0.17158534582025
H   0.1598898212424 3.39583104707559 0.63866267096206
H   -0.29147195838626 3.3625501679036 -1.08199585740178
H   -0.49180533566995 -2.17443961281568 1.19747553175526
H   -2.56853584408886 -0.10467123915068 2.01005138270927
H   2.23323712965233 -1.36436862450678 -1.63180616199393
H   -1.95318628857708 -0.87186838629898 -1.88672090097763
*
