! Engrad def2-TZVPPD wB97M-D3BJ 
%pal nprocs 8 end%pal nprocs 64 end 
%tddft 
 Iroot 2 Nroots 3 
sf true 
end 
*xyz 0 3 
O   3.42737991 -0.24782376 -0.01216437
O   -0.34857815 0.74154232 -2.74853594
O   -0.24491853 -2.72947802 -0.82235018
O   -3.51155165 -0.7302213 0.00773095
N   -0.27888074 -1.36265627 1.01486315
N   -2.02222474 0.7677714 0.80796965
N   1.50150527 -1.32598561 -0.475849
N   -1.87716854 -0.0172079 -1.32381015
C   1.60360926 0.12547325 1.39648447
C   -0.10662692 1.36248791 -0.46489177
C   0.15518432 -0.10639548 1.59415206
C   -0.6068862 1.08488539 0.887394
C   2.3222705 1.05238138 2.26575212
C   0.74956493 2.48779384 -0.63425508
C   2.26267259 -0.43710257 0.26589881
C   -0.7301147 0.73871518 -1.56458036
C   0.22638698 -1.86699402 -0.1658108
C   -2.48910793 -0.07377524 -0.1346667
H   -0.15750709 -0.09539358 2.61359993
H   -0.4052318 1.92307311 1.58288197
H   3.37970946 1.10428321 2.10839701
H   1.76142246 1.99684914 2.22043698
H   2.27935646 0.71380766 3.29491353
H   1.59378626 2.39245662 0.05402899
H   1.12678433 2.68980448 -1.67863115
H   0.0856649 3.31945428 -0.2776985
H   -1.2658386 -1.51356133 1.20198687
H   -2.48667995 0.67605342 1.75761733
H   1.97856218 -1.67069866 -1.29096524
H   -2.26931598 -0.52773095 -2.03808372
*
