! EnGrad wB97M-D3BJ def2-TZVPPD 
%pal nprocs 8 end%pal nprocs 16 end 
%tddft 
 sf true 
 nroots 2 Iroot 2 end 
*xyz 0 3 
O   0.51508681625758 1.28934485073917 0.12121253717557
C   0.61119385806842 0.15529304793617 -0.27864678620899
C   -0.44404820079021 -0.81344220846747 0.19424949256621
H   0.01284610159224 -1.64908190434861 0.72744643704873
H   1.4173912875361 -0.17521008800623 -0.95262416599709
H   -0.97938373804364 -1.24211097156296 -0.65486257350654
H   -1.13088612462049 -0.28319272629006 0.84322505892212
*
