! Engrad def2-TZVPPD wB97M-D3BJ 
%pal nprocs 8 end%pal nprocs 64 end 
%tddft 
 Iroot 1 Nroots 3 
sf true 
end 
*xyz 0 3 
O   0.8539223 -0.40103278 1.00771917
C   0.41938604 -0.3371047 -0.35883795
C   -0.13816625 0.99708841 -0.49521312
H   -0.31024805 -1.11518972 -0.65176607
H   1.24322916 -0.63146075 -1.06977758
H   0.06679031 1.58870507 -1.34099533
H   -0.61599284 1.33057911 0.3576603
*
