7
Coordinates from ORCA-job orca E -153.922068275156
  O           0.81198176513408      1.37901691603650      0.00127279779231
  C           0.52542270408007      0.23359646586763      0.20853949544047
  C          -0.46255630565741     -0.80151475475388     -0.23728834311168
  H           1.17115733628111     -0.27305370997301      0.97074434008789
  H           0.11668633566871     -1.64375095253876     -0.61313545145728
  H          -1.17789308928276     -0.47264455267883     -0.98812865262159
  H          -0.98259874622380     -1.14004941195966      0.65799581386988
