7
Coordinates from ORCA-job orca E -153.872099444403
  O           0.10947291091439      0.85604262597334     -0.00019628251869
  C           0.68202472498135     -0.38268059157308      0.00007454291738
  C          -0.72847882518467     -0.54650762914065     -0.00008695338237
  H           1.23322569743806     -0.65211396243593      0.90120384236444
  H           1.23300671849909     -0.65220026747056     -0.90119385661236
  H          -1.26370083016344     -0.67104262628525     -0.92639020078740
  H          -1.26335039648478     -0.66989754906786      0.92658890801899
