! Engrad def2-TZVPPD wB97M-D3BJ 
%pal nprocs 8 end%pal nprocs 64 end 
%tddft 
 Iroot 2 Nroots 3 
sf true 
end 
*xyz 0 3 
O   3.42461063 -0.27695146 -0.19617071
O   -0.63158749 0.85391104 -2.79744103
O   -0.08363157 -2.89489992 -0.53488241
O   -3.764212 -0.31767385 0.13051087
N   -0.19669061 -1.39723529 1.14987043
N   -1.98159747 0.88581321 0.91300416
N   1.48102957 -1.31719139 -0.52405312
N   -1.97750997 -0.06108047 -1.2030885
C   1.65186365 0.08658196 1.40016604
C   -0.14542225 1.29760407 -0.55414058
C   0.18560133 -0.04919291 1.61656837
C   -0.58227101 1.11531825 0.82738161
C   2.41400958 1.17964094 2.05698304
C   1.13648647 2.00598436 -0.97888522
C   2.30982172 -0.53769842 0.24715218
C   -0.92525603 0.69637539 -1.61169463
C   0.3725356 -1.97723818 0.04734391
C   -2.67321863 0.14277124 -0.01220186
H   -0.12948341 0.06464294 2.66339781
H   -0.45185997 2.03351824 1.46787283
H   3.35289065 1.22302943 1.47625454
H   1.9175647 2.11246226 2.06446917
H   2.5973472 1.0506899 3.15131095
H   1.78744968 1.35495505 -1.51842506
H   0.87027053 2.70370287 -1.82567038
H   1.5619067 2.50467086 -0.1666167
H   -1.21642508 -1.57823181 1.16291599
H   -2.41429963 0.97650953 1.81878752
H   1.91155598 -1.90769901 -1.26023508
H   -2.4781155 -0.55940043 -1.90412432
*
