! Engrad def2-TZVPPD wB97M-D3BJ 
%pal nprocs 8 end%pal nprocs 32 end 
%tddft Nroots 2 Iroot 1 
sf true 
end 
*xyz 0 3 
O   0.30931838 1.00706122 -0.00381168
C   0.63407328 -0.32883331 0.00192444
C   -0.76159895 -0.71561178 -0.0018642
H   1.20870348 -0.57268505 0.89628272
H   1.21978871 -0.60775965 -0.88668296
H   -1.31846462 -0.69552384 -0.9225756
H   -1.27949298 -0.71230337 0.93499743
*
