! Engrad def2-TZVPPD wB97M-D3BJ 
%pal nprocs 8 end%pal nprocs 64 end 
%tddft 
 Iroot 1 Nroots 3 
sf true 
end 
*xyz 0 3 
O   -0.31649124 -0.35875197 0.8817401
C   0.31113112 0.56789319 0.11552009
C   1.32388956 -0.03303721 -0.8404689
H   0.8734458 1.31256915 0.62571129
H   -0.46509273 1.28954055 -0.38457157
H   1.59320589 -1.03853438 -0.73658637
H   1.5655279 0.47225554 -1.72667002
*
