! Engrad def2-TZVPPD wB97M-D3BJ 
%pal nprocs 8 end%pal nprocs 64 end 
%tddft 
 Iroot 2 Nroots 3 
sf true 
end 
*xyz 0 3 
O   3.02849741 -0.88815652 -1.82362896
O   -1.6781965 1.08621539 -2.03515567
O   -0.9737869 -2.77580731 -0.72441487
O   -3.07964414 -0.03773681 2.11843504
N   0.119971 -1.43402479 0.84449813
N   -1.03872915 0.96517669 1.92294351
N   0.78909034 -1.43789752 -1.38954742
N   -2.43318445 0.78126419 0.07798492
C   2.16208348 -0.33833666 0.24349794
C   -0.19773454 1.53526972 -0.28525071
C   0.96035608 -0.33944317 1.11078346
C   0.12932099 1.07565346 1.0616552
C   3.43967437 0.18864948 0.66030937
C   0.7255368 2.32861824 -1.13464731
C   2.07625125 -0.95796251 -1.0729088
C   -1.48370264 1.12992741 -0.84612848
C   -0.1502036 -1.97721437 -0.41458692
C   -2.25030327 0.50380244 1.45718714
H   1.28210397 -0.33238998 2.13379435
H   0.78014423 1.73058729 1.59439637
H   4.33932334 -0.41688033 0.43133746
H   3.65540788 1.07554017 0.10516492
H   3.46918841 0.53197345 1.6997852
H   0.86263688 1.85043525 -2.11182439
H   0.29632538 3.3036258 -1.3776249
H   1.68704266 2.52152885 -0.63607547
H   -0.65433839 -1.48382424 1.47869712
H   -0.8760767 0.75590592 2.93608318
H   0.6426435 -1.72798594 -2.34629262
H   -3.17198561 0.26614535 -0.29232505
*
