7
Coordinates from ORCA-job orca E -153.785915763783
  O           0.47001148412499      1.08460043226478     -0.00272275751258
  C           0.60606431083772     -0.24825567750702     -0.00051431154462
  C          -0.74858643395779     -0.75133893660449      0.00098426294915
  H           1.15380513128582     -0.62184242196303      0.87957302357640
  H           1.15279266322709     -0.62484625958387     -0.87995375989150
  H          -1.31636300229444     -0.78075365571563     -0.92074957865676
  H          -1.31552415322338     -0.77596348089074      0.92338312107990
