! Engrad def2-TZVPPD wB97M-D3BJ 
%pal nprocs 8 end%pal nprocs 64 end 
%tddft 
 Iroot 1 Nroots 3 
sf true 
end 
*xyz 0 3 
O   2.44069558 -0.454363 -2.30473656
O   -1.71421058 1.71072394 -1.68755163
O   -1.43379495 -2.41000661 -0.91315818
O   -2.84147923 0.59384101 2.58978274
N   0.08420542 -1.80150267 0.65383076
N   -0.69654191 0.75561703 2.13605846
N   0.55170182 -1.58430242 -1.5661228
N   -2.19328742 0.66291093 0.31378577
C   2.14674391 -0.65280624 0.02217387
C   0.00934831 1.24701386 -0.16441077
C   1.07047677 -0.8151954 1.00880771
C   0.43161452 0.68147419 1.18295961
C   3.42816245 0.18354318 0.36759819
C   1.01232511 1.98460727 -0.98341829
C   1.77165439 -0.91627282 -1.37417222
C   -1.36279801 1.25047724 -0.62230805
C   -0.39274424 -2.00522797 -0.62903086
C   -1.99350056 0.63863218 1.70656307
H   1.27645887 -0.92969303 2.07161209
H   1.2429639 1.2959362 1.5140514
H   3.87912237 0.65206531 -0.54724093
H   3.07088338 1.16171103 0.92766391
H   4.01222078 -0.47708896 0.95899159
H   0.64632147 3.05406442 -1.00312854
H   2.04893117 1.90442441 -0.58163411
H   1.04146858 1.62108289 -2.04091418
H   -0.54408023 -2.11556212 1.40253331
H   -0.67370538 1.14465861 3.10745743
H   0.27097041 -1.75951873 -2.49070904
H   -3.09278377 0.36356743 -0.00353984
*
