7
Coordinates from ORCA-job orca E -153.889589270693
  O           0.01728044631025      0.78982862134916     -0.00004411945980
  C           0.73135626736377     -0.43375712349590      0.00012083972935
  C          -0.72512804086780     -0.44055772897444     -0.00012167336236
  H           1.26436274732754     -0.65744895633716      0.91616795559148
  H           1.26416077677975     -0.65751627260747     -0.91605575218966
  H          -1.25804466217685     -0.64937611552597     -0.91827071736467
  H          -1.25781994550703     -0.64929747381411      0.91820346705567
