! Engrad def2-TZVPPD wB97M-D3BJ 
%pal nprocs 8 end%pal nprocs 64 end 
%tddft 
 Iroot 1 Nroots 3 
sf true 
end 
*xyz 0 3 
O   3.59802528 -0.83241285 -0.34475398
O   -1.21910857 1.33320336 -2.66156529
O   -0.46473399 -2.85599296 -0.50665121
O   -3.43445452 -0.62491297 0.84744064
N   0.04469243 -1.35104403 1.10505518
N   -1.75729276 0.7671198 1.2353298
N   1.42188771 -1.58698478 -0.74800497
N   -2.17239868 0.09957506 -0.96479527
C   1.88201425 0.04196343 0.97659086
C   -0.31538924 1.59583177 -0.52081579
C   0.52227048 -0.08279254 1.39346657
C   -0.46390592 1.20278432 0.89224611
C   2.8264412 1.08299375 1.52871031
C   0.61793007 2.59477324 -1.1251601
C   2.41627549 -0.80556298 -0.1311929
C   -1.20477221 0.92926511 -1.51756854
C   0.2285486 -1.97793923 -0.11629888
C   -2.50282423 0.00327175 0.43271617
H   0.50229036 -0.01261796 2.4710018
H   -0.18871414 1.98231878 1.58490256
H   3.88202225 0.9265378 1.24888354
H   2.59078917 2.00815999 1.01725023
H   2.69009902 1.07254113 2.59484322
H   0.70160588 2.42905375 -2.17255183
H   0.17942818 3.56073877 -0.96497484
H   1.62286812 2.59257528 -0.65931823
H   -0.79695639 -1.51141758 1.61160131
H   -1.86295414 0.54163197 2.21244875
H   1.72524066 -2.18837546 -1.44460821
H   -2.58514272 -0.73415068 -1.39257751
*
