! EnGrad wB97M-D3BJ def2-TZVPPD 
%pal nprocs 8 end%pal nprocs 16 end 
%tddft 
 sf true 
 nroots 2 Iroot 2 end 
*xyz 0 3 
O   0.44607351335176 1.07189447781183 -0.00277463275666
C   0.61028085641917 -0.25715481796278 -0.00054537978189
C   -0.74700330271106 -0.745019149705 0.00088343316251
H   1.15963103594669 -0.62453661051459 0.8805078848204
H   1.15904155412233 -0.62759704204106 -0.88066589721116
H   -1.31348233834748 -0.77030983379277 -0.92124388001624
H   -1.31234131878142 -0.76567702379563 0.92383847178304
*
