7
Coordinates from ORCA-job orca E -153.863972327468
  O           0.25917297124685      0.89325751389750     -0.00017198224606
  C           0.72771820276670     -0.38035758775092      0.00002451134099
  C          -0.68301513920383     -0.51500549066581     -0.00018846006024
  H           1.26692516881361     -0.68843501671705      0.89798394492271
  H           1.26699830081887     -0.68876627696550     -0.89781581054629
  H          -1.22530752512163     -0.58734225656438     -0.92754643462964
  H          -1.22456328946472     -0.58638367623740      0.92771423121853
