! Engrad def2-TZVPPD wB97M-D3BJ 
%pal nprocs 8 end%pal nprocs 64 end 
%tddft 
 Iroot 1 Nroots 3 
sf true 
end 
*xyz 0 3 
O   0.77410268 0.12338683 -1.10443815
C   0.62025125 -0.32190941 0.16079159
C   -0.16999081 0.41445858 1.24379267
H   1.67571875 -0.50982428 0.55933562
H   0.2590687 -1.37258241 0.16723395
H   0.30304694 1.2410325 1.7453172
H   -1.20774929 0.28955352 1.57918679
*
