7
Coordinates from ORCA-job orca E -153.844838446892
  O           0.21179683984995      0.92895308138338     -0.00115161174452
  C           0.65422664730742     -0.34292338946790     -0.00021594160068
  C          -0.73286653931236     -0.63542667136740      0.00026291717965
  H           1.21135161832625     -0.64525931653547      0.89239566775958
  H           1.21148991072622     -0.64610783302850     -0.89241809140161
  H          -1.27728180507958     -0.69014460057122     -0.92774857907059
  H          -1.27651667181791     -0.68749127041288      0.92887563887817
