! Engrad def2-TZVPPD wB97M-D3BJ 
%pal nprocs 8 end%pal nprocs 64 end 
 %tddft nroots 2 Iroot 1 
sf true 
end 
*xyz 0 3 
O   2.68450384375528 1.16334450604113 -0.60928585935998
O   -0.51599338301611 0.78539196182546 -2.16347635353284
O   0.87535863498584 -2.91672105333379 -1.47087462156642
O   -2.69030355178972 -1.64370398729875 0.99699983170258
N   0.58883465342968 -2.00384097777881 0.59625306124665
N   -2.05981639970697 0.48888990268011 1.48976785121639
N   1.80956408237773 -0.8871126187251 -1.00120733292369
N   -1.67852653137977 -0.37362506621387 -0.60684253488039
C   1.25925490398115 0.24539088319582 1.05308001258586
C   -0.71472017891046 1.75418864987108 -0.00377935499741
C   0.67821722732583 -0.90724788003683 1.42153138599964
C   -1.38414926716345 1.6373958888152 1.14796743524331
C   1.54233049992841 1.34370683177985 2.03058945830481
C   -0.01298810070864 3.00689138968971 -0.42625187258095
C   1.97724728143837 0.25609189103689 -0.22542335711433
C   -0.92862047520753 0.72740618961945 -1.02716121793007
C   1.07257449903613 -2.01047153002166 -0.69431453371533
C   -2.18535324181986 -0.59658809763588 0.65075741624855
H   0.2388855554198 -1.04049592446081 2.39813633252784
H   -1.37402029860168 2.40893347729601 1.90197175569562
H   1.40579458293143 2.32275372422323 1.58486405400108
H   0.89732875518273 1.25511523612408 2.90253438841058
H   2.57773534118051 1.28966793300666 2.36395452179679
H   -0.48751809618466 3.41599580531931 -1.31603912102966
H   -0.04949872232207 3.75254764208195 0.36501817506124
H   1.02523045091694 2.80751816563172 -0.67866039647037
H   -0.01611077062574 -2.77066492184062 0.83542192364638
H   -2.48682604817266 0.38491308756761 2.39238673333408
H   2.18395870258875 -0.85074444526309 -1.93628085502901
H   -1.77977394886926 -1.1299266631961 -1.26703692589095
*
