! Engrad def2-TZVPPD wB97M-D3BJ 
%pal nprocs 8 end%pal nprocs 64 end 
%tddft 
 Iroot 2 Nroots 3 
sf true 
end 
*xyz 0 3 
O   -0.49384624 0.60568215 -0.44575318
C   0.53299221 0.400696 0.44032372
C   1.28945444 -0.89277514 0.29939933
H   0.0791278 0.50699514 1.42601619
H   1.26802001 1.24230678 0.14991389
H   0.6365683 -1.75199927 0.07164672
H   2.23164505 -0.94554545 -0.19506982
*
