! Engrad def2-TZVPPD wB97M-D3BJ 
%pal nprocs 8 end%pal nprocs 64 end 
%tddft Nroots 2 Iroot 1 
sf true 
end 
*xyz 0 3 
O   3.56742517 0.56250219 -0.28262391
O   -0.82187818 0.99003835 -2.44915075
O   0.5888358 -2.77723006 -0.82165347
O   -3.69552467 -1.28064013 0.0487476
N   0.27015526 -1.38829231 0.85678639
N   -2.14731268 -0.02724741 1.24414908
N   1.87319186 -0.8944474 -0.78958824
N   -1.99043423 -0.33427405 -1.04745443
C   1.71012555 0.56109102 1.19098273
C   -0.71611772 1.38667391 -0.17392301
C   0.3998681 -0.10112252 1.51013576
C   -0.92876556 0.80522396 1.19540126
C   2.38798409 1.50043648 2.11274033
C   0.06527837 2.67824066 -0.4653859
C   2.45755228 0.09803932 0.03807644
C   -1.15077728 0.69259929 -1.32294017
C   0.92255702 -1.78084324 -0.29119236
C   -2.72929189 -0.56707676 0.09654508
H   0.47704611 -0.2438412 2.57795676
H   -0.87652742 1.55158087 1.95250156
H   3.21227051 1.95038702 1.61233075
H   1.67109193 2.23534705 2.37575191
H   2.71637023 1.02514648 3.00868631
H   -0.48898611 3.2510683 -1.19553123
H   0.11158183 3.28240915 0.46266107
H   1.11527572 2.51260158 -0.87066783
H   -0.48750233 -1.96935998 1.08885278
H   -2.62970263 -0.1441728 2.10109561
H   2.39858758 -1.20780352 -1.57892442
H   -2.44798879 -0.73624112 -1.86392289
*
