! Engrad def2-TZVPPD wB97M-D3BJ 
%pal nprocs 8 end%pal nprocs 64 end 
%tddft Nroots 2 Iroot 2 
sf true 
end 
*xyz 0 3 
O   4.16051159 -0.24624922 1.11798781
O   -2.17591605 1.90850343 -2.09217361
O   1.33413351 -2.869638 -1.19288142
O   -3.61102444 -1.57755517 0.38898371
N   0.45356654 -0.99059007 -0.22949748
N   -1.93823676 -0.30919983 1.24636941
N   2.60471191 -1.70094068 0.2932614
N   -2.66378429 0.02017515 -0.9286862
C   1.88965658 0.43796604 1.05894511
C   -1.11722843 1.60683309 -0.00650763
C   0.50925128 -0.20957974 0.99749036
C   -0.84680276 0.63346791 1.10886279
C   2.13710738 1.83896638 1.32388331
C   -0.56667705 2.96518063 0.02846599
C   2.99366547 -0.49055381 0.8586442
C   -1.99376924 1.2359087 -1.09184055
C   1.4286394 -1.92706347 -0.43994197
C   -2.80233788 -0.6901192 0.2596114
H   0.48495549 -0.91631841 1.8416105
H   -0.76021278 1.2070605 2.0369937
H   3.16958073 2.00882221 1.6261603
H   1.95379538 2.44888847 0.43317418
H   1.43892555 2.24238481 2.05661842
H   -0.53607231 3.36338899 1.03778734
H   0.47223633 3.00274445 -0.31036397
H   -1.12348394 3.62616701 -0.62811192
H   -0.44071832 -1.26400422 -0.58782564
H   -2.01330408 -0.8565238 2.0783899
H   3.35120122 -2.33833283 0.08607854
H   -3.32739741 -0.21651754 -1.6448457
*
