7
Coordinates from ORCA-job orca E -153.930595416086
  O           1.43230255233588      1.03879523668431     -0.05707503923186
  C           0.93827620028722     -0.00869268830668      0.25748974237082
  C          -0.31064078199814     -0.67334496044312     -0.23258308970298
  H           1.45315251287650     -0.61756727138929      1.03170716848275
  H          -0.04493913575587     -1.65275529648054     -0.63099601594090
  H          -0.82344379459360     -0.08662089525152     -0.98976405236766
  H          -0.96706496154202     -0.84278411339588      0.62122128638983
