! Engrad def2-TZVPPD wB97M-D3BJ 
%pal nprocs 8 end%pal nprocs 64 end 
%tddft 
 Iroot 2 Nroots 3 
sf true 
end 
*xyz 0 3 
O   -0.25316842 0.98245258 0.3474107
C   0.54608103 -0.11585123 0.53147036
C   1.02141207 -0.74891303 -0.72170051
H   -0.03151655 -0.78905502 1.26203437
H   1.42746054 0.28459598 1.11063592
H   0.72707533 -1.70256363 -0.85920845
H   1.55535497 -0.14004962 -1.47105833
*
