! Engrad wB97M-D3BJ def2-TZVPPD 
%pal nprocs 8 end%pal nprocs 16 end 
%tddft nroots 2 Iroot 1
 sf true 
end 
*xyz 0 3 
O   1.71607270800911 0.91124643860165 0.03314831013908
C   0.97819889946192 -0.02101329704867 0.18895626905725
C   -0.30353181120079 -0.67044427824132 -0.24876155045558
H   1.35279332508191 -0.7335692266632 0.9755250163685
H   -0.03008705825673 -1.67181909955607 -0.57737270810181
H   -0.87532675470524 -0.16355459818188 -1.02443586086213
H   -0.90465735368835 -0.77549675543389 0.65294052385468
*
