! Engrad def2-TZVPPD wB97M-D3BJ 
%pal nprocs 8 end%pal nprocs 64 end 
 %tddft nroots 2 Iroot 1 
sf true 
end 
*xyz 0 3 
O   2.66750263261322 1.13122786450332 -0.62929228769259
O   -0.50461613197786 0.84441756863807 -2.16934793586514
O   0.63485242487854 -2.83304443941289 -1.50914478959728
O   -2.53321332746924 -1.67464414985047 1.01918693451801
N   0.65597546060062 -2.07540787766762 0.63767905666912
N   -2.18665195203598 0.5393672972223 1.42461353897204
N   1.76039747832612 -0.91015146475176 -1.01595081594929
N   -1.59999118270801 -0.36910839995139 -0.60386732298816
C   1.53400474597195 0.07834251792638 1.16641111435438
C   -0.9279331736087 1.88897338574967 -0.07877064192482
C   0.87959164888587 -1.0379425700085 1.51199124031244
C   -1.58979505115603 1.73161714933139 1.07167906730985
C   1.80231283086929 1.2094092994037 2.10524072605692
C   -0.21863189914359 3.14292931127979 -0.47665737733802
C   2.04785656356321 0.18170311931522 -0.19971519556314
C   -0.97018552975851 0.79539777906357 -1.05315656529372
C   0.99177836480983 -2.00803059222846 -0.69780712622996
C   -2.13977517523716 -0.5905990503408 0.64080999820973
H   0.48039621743375 -1.1862823232546 2.50412511801669
H   -1.65159075721049 2.51431589814682 1.8123540555592
H   1.40609208823145 2.14051048172371 1.70509327382954
H   1.34902445699901 1.02047181092449 3.07602063768075
H   2.87252970265235 1.35419568059337 2.2404459810531
H   -0.63884387702584 3.54692035673317 -1.39544631840566
H   -0.29244106633018 3.89379511354742 0.30698528386007
H   0.83225612918947 2.93362006328905 -0.67037251789975
H   0.00157111678501 -2.80118970008538 0.8765426163408
H   -2.60699549456074 0.41880208540395 2.32802471460899
H   1.97694054345915 -0.80160352043434 -1.99487593884558
H   -1.57981778704654 -1.16301269480924 -1.22819852375858
*
