! Engrad def2-TZVPPD wB97M-D3BJ 
%pal nprocs 8 end%pal nprocs 64 end 
%tddft 
 Iroot 2 Nroots 3 
sf true 
end 
*xyz 0 3 
O   3.03958139 -0.70348336 -1.64369912
O   -1.44962534 1.41815251 -2.18100616
O   -0.94028135 -2.65797462 -0.74294192
O   -3.47840883 0.09172836 1.64779935
N   0.02439405 -1.43556336 0.88088033
N   -1.3199195 0.75879661 1.87917711
N   1.06518522 -1.70825572 -1.21257671
N   -2.26305444 0.50442252 -0.20650659
C   2.105611 -0.28471988 0.40803581
C   -0.11338344 1.4046715 -0.25553159
C   0.82043873 -0.27880381 1.20627408
C   -0.04641399 1.00974486 1.18286858
C   3.33970995 0.48088169 0.69724899
C   0.99086652 2.14313124 -0.80213584
C   2.13900982 -0.97968385 -0.82142587
C   -1.29516623 1.12152956 -0.9476843
C   -0.00806338 -1.95230815 -0.40922262
C   -2.41758727 0.39230277 1.18537356
H   1.12272338 -0.32083898 2.27984468
H   0.47677745 1.71429731 1.78287311
H   3.80802427 0.8970127 -0.1827234
H   3.20247762 1.26538027 1.41176344
H   4.07096767 -0.23352351 1.00503706
H   0.67564006 2.89071005 -1.55154393
H   1.72759602 2.61617837 -0.14827566
H   1.54342565 1.44355943 -1.46557484
H   -0.80491066 -1.7149294 1.42908007
H   -1.47052064 1.08970221 2.82759491
H   0.99749671 -2.11210403 -2.10439333
H   -3.13199293 0.18520033 -0.65471468
*
