! Engrad def2-TZVPPD wB97M-D3BJ 
%pal nprocs 8 end%pal nprocs 64 end 
%tddft 
 Iroot 1 Nroots 3 
sf true 
end 
*xyz 0 3 
O   3.74189115 0.12915445 0.33924604
O   -0.83724499 0.84251658 -2.66567638
O   0.53307144 -2.46701644 -1.35999119
O   -3.50642176 -1.28330935 0.30734042
N   0.02020214 -1.40978689 0.59454136
N   -2.20176886 0.39657146 1.02343626
N   2.04614901 -1.11345092 -0.47470818
N   -2.26785157 -0.14703512 -1.28086818
C   1.62997896 0.35565943 1.38763944
C   -0.54656602 1.30201757 -0.42304162
C   0.2265818 -0.21527284 1.43206839
C   -0.93882476 0.93883999 0.96592001
C   2.09322594 1.47588204 2.31095325
C   0.52379871 2.32760357 -0.66239796
C   2.53943112 -0.21598939 0.46221756
C   -1.2043374 0.68836987 -1.5129131
C   0.77877086 -1.66832853 -0.50286285
C   -2.77027401 -0.42889778 0.02649294
H   -0.23704098 -0.39779818 2.39628485
H   -0.7664284 1.72217068 1.71169483
H   3.12374912 1.25463947 2.79616721
H   2.05715876 2.3749297 1.72867691
H   1.3665532 1.60861185 3.10661656
H   1.408241 1.7880608 -0.99104193
H   0.12425143 2.93173472 -1.47022213
H   0.74577357 2.89728554 0.17551801
H   -0.90174061 -1.89375876 0.59707225
H   -2.56560985 0.09580032 1.94625201
H   2.62480512 -1.29246644 -1.30728162
H   -2.4279432 -0.7404082 -2.086599
*
