! Engrad def2-TZVPPD wB97M-D3BJ 
%pal nprocs 8 end%pal nprocs 64 end 
%tddft Nroots 2 Iroot 1 
sf true 
end 
*xyz 0 3 
O   3.26760565 0.57917976 -0.7705886
O   -1.09195604 1.29022286 -2.48877643
O   0.58820104 -3.00127855 -0.65296602
O   -3.30182307 -1.63148046 0.00947752
N   0.33230547 -1.50154984 1.08956141
N   -2.01407443 -0.02320182 1.15806078
N   1.90950038 -1.24561459 -0.62378551
N   -1.80690638 -0.40072724 -1.11690021
C   1.7121749 0.44996269 1.04707871
C   -0.68554556 1.54552746 -0.10568747
C   0.46503752 -0.16613918 1.56868268
C   -0.81895879 0.81053368 1.18855874
C   2.27834494 1.76195968 1.60210586
C   -0.28413377 3.00443972 -0.15322282
C   2.39976334 -0.02915323 -0.14479304
C   -1.20518772 0.9138894 -1.31967777
C   0.87574748 -1.95142071 -0.11487677
C   -2.46654558 -0.73265599 0.01810822
H   0.44134836 -0.25181349 2.62504339
H   -0.86806665 1.53607039 1.98458137
H   2.1764815 2.48048703 0.81525753
H   1.74415328 2.21651777 2.48615369
H   3.36195112 1.65996091 1.78803058
H   -1.20529207 3.59531752 -0.34647127
H   0.1191951 3.28210524 0.79575121
H   0.3592835 3.24800633 -1.02747307
H   -0.52478677 -2.01486389 1.23600619
H   -2.73027113 -0.0013153 1.88641302
H   2.38172888 -1.56709776 -1.48551546
H   -1.97399766 -1.01895739 -1.88213259
*
