! Engrad def2-TZVPPD wB97M-D3BJ 
%pal nprocs 8 end%pal nprocs 64 end 
%tddft Nroots 2 Iroot 2 
sf true 
end 
*xyz 0 3 
O   3.6442135 0.36063715 -0.43232695
O   -1.18733372 1.21701787 -2.62184271
O   0.47752402 -2.75187323 -0.79754804
O   -3.0659321 -1.71585459 0.20883507
N   0.33567562 -1.30599685 0.95160293
N   -2.0629052 0.11987041 1.10758395
N   1.7523366 -0.84597754 -0.81992958
N   -1.74606055 -0.41874181 -1.12920805
C   1.94839377 0.39628567 1.22987998
C   -1.00522615 1.69291753 -0.30558251
C   0.44184053 0.05249609 1.44848149
C   -0.88206083 0.9692958 1.02800656
C   2.76635924 1.01354388 2.28755157
C   -1.0607161 3.15546701 -0.40886582
C   2.54273987 0.00060659 -0.04138921
C   -1.30278925 0.86937918 -1.46225075
C   0.81653783 -1.71357076 -0.25939229
C   -2.34373726 -0.74729801 0.08107346
H   0.29364437 -0.00641655 2.52252135
H   -0.94236603 1.71559748 1.82620676
H   3.79878668 1.09144705 1.97653327
H   2.40362238 2.00520759 2.56335836
H   2.67405524 0.41137817 3.20984008
H   -2.00073706 3.52826811 0.02217579
H   -0.26585166 3.63809609 0.1884366
H   -1.00137022 3.48086439 -1.44628868
H   -0.33873259 -1.92720014 1.35723808
H   -2.4800505 -0.09552819 1.99978608
H   2.15459614 -1.15546722 -1.6796433
H   -1.92397166 -1.05686854 -1.88421102
*
