! Engrad def2-TZVPPD wB97M-D3BJ 
%pal nprocs 8 end%pal nprocs 64 end 
%tddft 
 Iroot 2 Nroots 3 
sf true 
end 
*xyz 0 3 
O   0.21573414 1.1253826 0.51384961
C   0.44353033 -0.27470135 0.47608859
C   0.56410856 -0.71998042 -0.87420549
H   -0.36704149 -0.85247577 0.99579505
H   1.22227608 -0.48375508 1.34971864
H   -0.05487779 -1.42410565 -1.25956799
H   1.50165909 -0.41107032 -1.34054453
*
