30
Coordinates from ORCA-job orca E -908.770417928441
  O           3.20149390163523      0.39450539383193     -0.91175415198872
  O          -0.64097058891592      1.53668143966143     -2.30829234309948
  O           0.40733453997685     -3.07848132558318     -0.35481651739891
  O          -3.00795171450673     -1.77603183878600     -0.41694590871293
  N           0.33777207222316     -1.43668520734294      1.20982088084484
  N          -2.15832572541317     -0.18115891256964      0.96605680821472
  N           1.55058753835391     -1.15944436434856     -0.76469818310430
  N          -1.48897038193992     -0.29278555051526     -1.25184792733303
  C           1.77080962544883      0.50369668360109      0.95027506215489
  C          -0.86375436957965      1.61942056120342      0.04792661608481
  C           0.38001484940996     -0.04195557733256      1.55775441387612
  C          -1.08116938831844      0.72032631243111      1.23717769415743
  C           2.48817479546413      1.57103839241379      1.65053932387552
  C          -0.69246938130618      3.06840820471994      0.19259225489722
  C           2.24689096856984     -0.04822591329193     -0.29695351111129
  C          -0.96747207828181      1.00037143753672     -1.26834729850081
  C           0.73030530120846     -1.96930417987882      0.00194603866193
  C          -2.27638251246394     -0.83482528906532     -0.23637976172081
  H           0.48837131010528      0.01253015659447      2.64362508174603
  H          -1.32832081943447      1.31481115870930      2.11274311572260
  H           3.46446552550465      1.73704939396765      1.20620679187980
  H           1.92536185891938      2.51790047337179      1.59981395163967
  H           2.58712820001124      1.34388916362718      2.71581171676374
  H          -1.56982634022510      3.51077205308221      0.67687068718715
  H           0.15466133945527      3.29705793856277      0.85493521937467
  H          -0.53048179982317      3.53737754874736     -0.77216506505459
  H          -0.28299470813278     -2.05118859860283      1.70812976311153
  H          -2.69871691494367     -0.57937660993470      1.71288753047491
  H           1.90009019975644     -1.58015353860616     -1.60992993414393
  H          -1.59305530275774     -0.74121940620426     -2.14838234849879
