7
Coordinates from ORCA-job orca E -153.871226670669
  O           0.20822915343563      0.87343012534129     -0.00013092857529
  C           0.72532194171495     -0.38842773146862      0.00003468928856
  C          -0.68990280496043     -0.49947430639899     -0.00010739772369
  H           1.26536939466730     -0.68140458168275      0.90080794140800
  H           1.26539663573448     -0.68153141905718     -0.90069972761090
  H          -1.23004774148826     -0.59891472425525     -0.92653011665096
  H          -1.22968352738095     -0.59814695763746      0.92662553986427
