! Engrad def2-TZVPPD wB97M-D3BJ 
%pal nprocs 8 end%pal nprocs 64 end 
%tddft 
 Iroot 1 Nroots 3 
sf true 
end 
*xyz 0 3 
O   0.49611041 -0.34657861 -1.02632049
C   0.6774007 -0.26638176 0.35879026
C   -0.01914189 0.87079323 0.94062984
H   1.7878826 -0.08536044 0.62338184
H   0.47584357 -1.23633091 0.90866313
H   0.61713434 1.5404203 1.56882279
H   -1.05927343 1.04997458 0.86275511
*
