! Engrad def2-TZVPPD wB97M-D3BJ 
%pal nprocs 8 end%pal nprocs 64 end 
%tddft Nroots 2 Iroot 2 
sf true 
end 
*xyz 0 3 
O   3.68271354 0.62047588 -0.28456222
O   -1.5153593 0.83835557 -2.3405662
O   0.75301903 -2.65983317 -1.50280075
O   -3.92856185 -0.70448636 1.04394213
N   0.37827696 -1.49669619 0.42764244
N   -1.8451321 0.02483333 1.5845151
N   2.19516158 -0.9652342 -0.91952719
N   -2.46007837 -0.22471097 -0.6038008
C   1.85448066 0.35321412 1.02955699
C   -0.65162691 1.25731272 -0.18185097
C   0.59464826 -0.36078372 1.27570429
C   -0.55949088 0.64925157 1.16902282
C   2.32760968 1.47656512 1.95758339
C   0.19039622 2.47505682 -0.65301815
C   2.69014878 -0.00311875 -0.03680686
C   -1.55152229 0.64281816 -1.17432494
C   1.0624795 -1.80939007 -0.77355718
C   -2.81174202 -0.31251981 0.72104104
H   0.56313622 -0.72921024 2.25391273
H   -0.31735848 1.365312 2.0196059
H   3.37571869 1.48216302 2.05302183
H   2.0387492 2.40967782 1.51239496
H   1.87848045 1.39980082 3.02685167
H   0.31691826 3.16980322 0.13124765
H   1.26932599 1.97187408 -0.84904123
H   -0.27929948 2.79965157 -1.54896878
H   -0.58955185 -1.81242022 0.68934912
H   -2.15072299 0.14109443 2.51699902
H   2.70785372 -0.96493419 -1.84487963
H   -3.32505678 -0.45288128 -1.14358714
*
