! Engrad def2-TZVPPD wB97M-D3BJ 
%pal nprocs 8 end%pal nprocs 64 end 
%tddft 
 Iroot 1 Nroots 3 
sf true 
end 
*xyz 0 3 
O   3.03788019 -0.70499211 -1.64178231
O   -1.46743384 1.4125862 -2.17879124
O   -0.95042222 -2.67341234 -0.76226466
O   -3.46496593 0.09995531 1.65149379
N   0.02581695 -1.42946088 0.88454842
N   -1.31378664 0.7584476 1.88695948
N   1.07806188 -1.70451278 -1.21441873
N   -2.24141998 0.50344866 -0.20631352
C   2.08842535 -0.28658613 0.41089245
C   -0.12023519 1.40598521 -0.25050593
C   0.8058614 -0.30002718 1.21739997
C   -0.03892648 1.01156691 1.20064563
C   3.33662557 0.49245575 0.7136939
C   0.99907149 2.13642773 -0.80387804
C   2.15642953 -0.95825524 -0.83090289
C   -1.30370905 1.12010528 -0.96095778
C   -0.00464392 -1.94658847 -0.40924305
C   -2.42980142 0.39323952 1.17683839
H   1.09571715 -0.36429958 2.25673348
H   0.44239625 1.781925 1.72426742
H   3.8836043 0.93107557 -0.14722022
H   3.10855705 1.33573251 1.40031587
H   4.11826954 -0.22587666 1.01129402
H   0.64878574 2.84056279 -1.55849613
H   1.68523191 2.62867684 -0.10624134
H   1.58756565 1.47450421 -1.43264643
H   -0.82540923 -1.73816802 1.40787144
H   -1.48158153 1.1018488 2.80700145
H   1.0503028 -2.1135686 -2.19800793
H   -3.11516833 0.16205038 -0.65037322
*
