! Engrad def2-TZVPPD wB97M-D3BJ 
%pal nprocs 8 end%pal nprocs 64 end 
%tddft Nroots 2 Iroot 1 
sf true 
end 
*xyz 0 3 
O   3.64380438 0.35856532 -0.43460045
O   -1.18458385 1.21793616 -2.61973494
O   0.47903059 -2.74724416 -0.79718849
O   -3.0665952 -1.7138752 0.20894124
N   0.33551791 -1.30387359 0.9543356
N   -2.0638994 0.12410556 1.10444156
N   1.74832813 -0.84844025 -0.82027397
N   -1.74659364 -0.41794439 -1.1302464
C   1.96575042 0.39299536 1.22625034
C   -1.01019073 1.69536636 -0.31073108
C   0.43672254 0.05059148 1.44588574
C   -0.88640685 0.96642326 1.03714197
C   2.7651723 1.00978154 2.29269942
C   -1.06119629 3.15861037 -0.40528774
C   2.5425914 0.00741267 -0.03970606
C   -1.30341684 0.86446692 -1.46281485
C   0.81993209 -1.71373069 -0.26520891
C   -2.344566 -0.75105513 0.08032246
H   0.30174117 -0.01200062 2.52407548
H   -0.95224524 1.71607142 1.81826475
H   3.80738655 1.08362343 1.99490217
H   2.40032779 2.00905462 2.55588316
H   2.67892241 0.409351 3.21722452
H   -2.00832576 3.53354408 0.017719
H   -0.26695401 3.63203718 0.18182219
H   -1.00554987 3.47358894 -1.44120102
H   -0.32535142 -1.94219818 1.3691156
H   -2.48253407 -0.10539147 1.98521104
H   2.16270848 -1.16284089 -1.67384414
H   -1.93972979 -1.04889933 -1.89309157
*
