! Engrad def2-TZVPPD wB97M-D3BJ 
%pal nprocs 8 end%pal nprocs 64 end 
%tddft 
 Iroot 2 Nroots 3 
sf true 
end 
*xyz 0 3 
O   3.5899738 0.28183901 0.54106094
O   -0.7346114 0.94979794 -2.85627489
O   0.58580048 -2.79471237 -0.98614875
O   -3.90945016 -0.72178543 -0.00310817
N   -0.00910889 -1.4603499 0.71781869
N   -2.18927034 0.49414013 0.7782815
N   2.11830256 -1.28207263 -0.22158236
N   -2.07891851 -0.21391978 -1.3693552
C   1.50825252 0.27287503 1.58625099
C   -0.37714701 1.34032389 -0.60162816
C   0.08304369 -0.25716163 1.47459808
C   -0.77189515 0.81280474 0.77640489
C   1.83392874 1.40464914 2.491875
C   0.77650185 2.22154066 -0.88149037
C   2.48242727 -0.24169552 0.55948283
C   -1.03023126 0.69328546 -1.68562519
C   0.832884 -1.87446254 -0.24150359
C   -2.81522581 -0.20905261 -0.14811654
H   -0.34278305 -0.32203971 2.50686204
H   -0.72245058 1.71414048 1.45285317
H   2.60829371 2.00179467 2.07606523
H   0.92205899 1.89537937 2.78483304
H   2.27063417 1.02693196 3.42034107
H   1.69512371 1.68263421 -1.22100247
H   0.59957448 3.01859253 -1.62439176
H   1.1195951 2.72001159 -0.04285704
H   -0.90533786 -1.84743068 0.50398199
H   -2.67065846 0.43150139 1.65150623
H   2.78696701 -1.62768869 -0.79642799
H   -2.31916403 -0.8700351 -2.14895883
*
