! Engrad def2-TZVPPD wB97M-D3BJ 
%pal nprocs 8 end%pal nprocs 32 end 
%tddft Nroots 2 Iroot 1 
sf true 
end 
*xyz 0 3 
O   2.85176701 0.99033569 -0.45261191
O   -0.81279703 0.83904637 -2.42851264
O   0.44748511 -2.80390192 -1.39802686
O   -2.48059132 -1.49622695 1.06980476
N   0.55668191 -2.02835847 0.72236188
N   -1.99226175 0.69408501 1.46713713
N   1.49564162 -0.88653779 -1.00570609
N   -1.68420158 -0.27932353 -0.65283762
C   1.74396877 -0.0201246 1.33650056
C   -1.0760598 1.98583414 -0.32678312
C   0.96288326 -1.11779885 1.69204628
C   -1.23800529 1.78420762 1.06694313
C   2.27218577 0.92324177 2.33095156
C   -0.65017735 3.34264973 -0.86538795
C   2.04101685 0.11228911 -0.10310881
C   -1.15610921 0.87583153 -1.25275698
C   0.89503148 -2.04839818 -0.59110221
C   -2.09841621 -0.40929553 0.66613137
H   0.87442975 -1.62408275 2.62915626
H   -0.88372515 2.54493253 1.68430702
H   1.50426361 1.36123684 2.98883829
H   3.05529758 0.3947956 2.85760012
H   2.7864724 1.71415726 1.82837723
H   -0.6736958 3.44988617 -2.03244991
H   -1.20731988 4.1075015 -0.39835636
H   0.457978 3.51936641 -0.63173016
H   -0.09839334 -2.74261249 0.93276802
H   -2.08851551 0.43481531 2.43333443
H   1.67859654 -0.7177593 -1.96803974
H   -1.75415092 -1.15879918 -1.17868888
*
