7
Coordinates from ORCA-job orca E -153.888847281832
  O           0.04052117104708      0.80026645279079     -0.00004973519687
  C           0.72887054944943     -0.42655938720619      0.00014333972900
  C          -0.71981541211519     -0.44732961047396     -0.00015815059554
  H           1.26369012551335     -0.65987140484656      0.91392086897221
  H           1.26339257236759     -0.66036674624605     -0.91372848337676
  H          -1.25378105388343     -0.64263932985118     -0.91950955888668
  H          -1.25342330398151     -0.64296102687709      0.91938171935465
