! EnGrad wB97M-D3BJ def2-TZVPPD 
%pal nprocs 8 end%pal nprocs 16 end 
%tddft 
 sf true 
 nroots 2 Iroot 1 end 
*xyz 0 3 
O   0.31050460132623 0.9933833023085 -0.00233496382799
C   0.63414926777723 -0.30711840544891 -0.00055510261042
C   -0.73860359346233 -0.69538591110131 0.00049215528296
H   1.19061456756781 -0.63729044681421 0.88650477643686
H   1.19140506049047 -0.63936680896529 -0.8862503051509
H   -1.29383643619678 -0.7180188160527 -0.92501124276209
H   -1.29203346750262 -0.71460291392607 0.92715468263156
*
