! Engrad def2-TZVPPD wB97M-D3BJ 
%pal nprocs 8 end%pal nprocs 32 end 
 %tddft nroots 2 Iroot 2 
sf true 
end 
*xyz 0 3 
O   2.18878548639609 -0.03023345732285 -1.18648954645247
O   -0.27933055343757 2.6296052003909 -2.36392398369563
O   0.33600683966695 -3.74397232287577 0.58766726845134
O   -2.2880394604173 -1.1704576079084 -1.2271062799557
N   0.39087158394584 -1.88924394661133 1.89438762745838
N   -1.41703387028739 -0.13972914546501 0.58008573351577
N   1.08979957819277 -1.80183849702123 -0.32211910435657
N   -0.91396364539303 0.5742254351131 -1.6291272019586
C   1.16986976324439 0.29052627108718 0.93679984648176
C   -0.15857375501652 2.48726185719787 -0.1810510120445
C   0.56889106940199 -0.48987837375113 2.05886553557091
C   -0.35508823506623 0.45800544175041 1.31106833516371
C   2.14148651439386 1.38425614609823 1.2919437049695
C   -1.25364559783085 3.30445740810971 0.37463566855667
C   1.53112260131709 -0.49251668296605 -0.28819087953592
C   -0.48290391211845 1.86569383390565 -1.42834145871181
C   0.57666503349136 -2.56875849186932 0.72355598354381
C   -1.58122854296441 -0.29928940965988 -0.77591900388356
H   0.86160845375741 -0.20420111144635 3.05769340317221
H   -0.57550539086833 1.37567353275721 1.83376179664674
H   2.37216818678992 1.98397830059241 0.42205694461443
H   1.72070992008647 2.03241454470026 2.05753419730709
H   3.05602064405391 0.93475899239279 1.67810263689772
H   -2.24223980974969 2.83693809901739 0.37178055906746
H   -1.02441132571529 3.74241818575362 1.34223385270532
H   -1.30196083476659 4.12485149349446 -0.35529946484106
H   -0.0165892157248 -2.43340389433973 2.63313358969268
H   -1.92249692160238 -0.86425088325168 1.06553758635179
H   1.30789594030761 -2.32483802532168 -1.15574154700345
H   -1.04629054408684 0.34254710744918 -2.60293478772805
*
