! Engrad def2-TZVPPD wB97M-D3BJ 
%pal nprocs 8 end%pal nprocs 64 end 
%tddft 
 Iroot 2 Nroots 3 
sf true 
end 
*xyz 0 3 
O   3.15460613 0.18403087 -1.82324354
O   -2.1903451 0.59418326 -1.81703747
O   -0.59232255 -2.30458606 -1.35592609
O   -2.89001605 -0.46750468 2.56295059
N   0.31222031 -1.51913544 0.50067184
N   -1.07479525 0.84394786 2.05834916
N   1.31542866 -1.20009306 -1.55834896
N   -2.38565445 -0.16123801 0.34647683
C   2.11655637 0.04413281 0.26684726
C   -0.48522307 1.14566754 -0.26942247
C   0.93127581 -0.32345848 1.09530013
C   0.01312138 0.94319266 1.09223329
C   3.12224231 0.96339353 0.83940491
C   0.21362143 2.01651235 -1.22780261
C   2.33330319 -0.33986419 -1.12824235
C   -1.78503818 0.58805352 -0.67328632
C   0.26749725 -1.70666974 -0.81002533
C   -2.18933697 0.06423191 1.73719044
H   1.17639799 -0.54242055 2.19496985
H   0.61571272 1.73701951 1.40380387
H   2.88047294 1.18169663 1.83533737
H   4.06869756 0.542457 0.72621813
H   3.15862688 1.94061341 0.33425309
H   -0.51885804 2.71003863 -1.52323254
H   1.19781822 2.46211213 -0.99790257
H   0.42961791 1.51627128 -2.24249305
H   -0.48716084 -1.91307781 0.97891118
H   -0.72715058 0.79018776 2.99826697
H   1.12171857 -1.39812359 -2.56468938
H   -3.25970305 -0.57372273 -0.00559389
*
