! Engrad def2-TZVPPD wB97M-D3BJ 
%pal nprocs 8 end%pal nprocs 64 end 
%tddft 
 Iroot 2 Nroots 3 
sf true 
end 
*xyz 0 3 
O   3.20108036 0.39189787 -0.90704502
O   -0.64193018 1.53518483 -2.31271664
O   0.41244517 -3.07920949 -0.35378061
O   -3.00354552 -1.77532544 -0.4222574
N   0.33344522 -1.4439819 1.20830403
N   -2.15815521 -0.18188537 0.95951559
N   1.55017785 -1.15274083 -0.76256946
N   -1.49622525 -0.29173717 -1.25195905
C   1.74606101 0.50755938 0.95690465
C   -0.86588624 1.61383793 0.04529598
C   0.39828077 -0.04227444 1.56370619
C   -1.06726834 0.73309115 1.22795244
C   2.48577896 1.56857207 1.64963438
C   -0.69027191 3.06461767 0.19154548
C   2.24718571 -0.04251832 -0.30009308
C   -0.96989265 1.00317586 -1.26355357
C   0.72803272 -1.96933691 0.00990141
C   -2.2767523 -0.83989415 -0.23850508
H   0.48770373 0.02493906 2.65373517
H   -1.32455593 1.29858108 2.1166557
H   3.4719596 1.73850885 1.19846645
H   1.93321735 2.4949393 1.56967096
H   2.57628627 1.33707319 2.72121451
H   -1.5770727 3.49589325 0.67650475
H   0.15322981 3.27965663 0.83328889
H   -0.52762694 3.54076529 -0.7683859
H   -0.28452789 -2.05335035 1.71756063
H   -2.68302448 -0.57665667 1.72015309
H   1.89819959 -1.6151915 -1.58629613
H   -1.58292036 -0.76297324 -2.14285403
*
