7
Coordinates from ORCA-job orca E -153.879718613945
  O           0.07772357862703      0.83328810661002     -0.00009368995172
  C           0.69343753893028     -0.39660844549029      0.00011615651376
  C          -0.72786630404429     -0.51534425736905     -0.00015342663738
  H           1.24073159586715     -0.65348005682021      0.90498775695527
  H           1.24047545748823     -0.65374029650741     -0.90488486395896
  H          -1.26134706727597     -0.66648081662314     -0.92448632160860
  H          -1.26095479959242     -0.66603423379992      0.92451438868763
