! Engrad def2-TZVPPD wB97M-D3BJ 
%pal nprocs 8 end%pal nprocs 64 end 
%tddft Nroots 2 Iroot 2 
sf true 
end 
*xyz 0 3 
O   3.04447884 0.97173352 -0.64754819
O   -1.33065853 0.93631795 -2.32279922
O   0.75701091 -2.86275679 -1.62447155
O   -3.07051058 -1.21214167 1.38706043
N   1.04234003 -2.30576584 0.51696127
N   -2.23279551 0.89365239 1.56869877
N   1.87869698 -0.88658663 -1.05908981
N   -2.02718911 -0.2158589 -0.44596719
C   2.13885209 -0.24125067 1.2132257
C   -1.14074957 2.04964129 -0.15840407
C   1.48525043 -1.44090243 1.47417907
C   -1.58025702 1.93708649 1.16953972
C   2.60010372 0.67752464 2.25400625
C   -0.52269501 3.29882119 -0.68602736
C   2.42456071 0.0507592 -0.121357
C   -1.4856845 0.95882787 -1.07773025
C   1.23357567 -2.11575025 -0.82157895
C   -2.4875967 -0.27420391 0.85877533
H   1.13026838 -1.76718071 2.53780717
H   -1.26496737 2.73870884 1.82566399
H   2.22998923 0.32759377 3.29300215
H   3.68869219 0.66972245 2.37421414
H   2.29619572 1.66541145 1.95021173
H   0.08321585 3.15103602 -1.52158664
H   -1.30050762 3.9749742 -1.05028597
H   0.01255562 3.71688635 0.1764941
H   0.41695466 -2.98720653 0.73592668
H   -2.41442927 0.8914977 2.5490656
H   2.15952239 -0.60537773 -2.01917852
H   -1.88387674 -1.07379496 -1.0040346
*
