! Engrad def2-TZVPPD wB97M-D3BJ 
%pal nprocs 8 end%pal nprocs 64 end 
%tddft 
 Iroot 1 Nroots 3 
sf true 
end 
*xyz 0 3 
O   3.37746599 -1.09597833 -1.92287383
O   -2.18562551 1.89747179 -1.4325852
O   -1.06305168 -2.09341905 -1.71199235
O   -3.08367037 0.44819352 2.80691493
N   0.06453148 -1.65935893 0.20274955
N   -0.88173704 0.34278097 2.08641904
N   1.18291576 -1.5278147 -1.79410329
N   -2.67414362 0.95254248 0.5947087
C   2.23741309 -0.51772299 0.09698555
C   -0.33802976 1.33989103 -0.04014902
C   1.01154033 -0.74628492 0.85514607
C   0.20163483 0.66714481 1.17219504
C   3.43950646 0.00943663 0.66033022
C   0.61144186 1.96828806 -0.99728982
C   2.34786261 -1.09166546 -1.26427466
C   -1.75392905 1.41144118 -0.35417291
C   -0.04799168 -1.70264806 -1.15800647
C   -2.23129234 0.6202377 1.93624436
H   1.28195816 -1.11512935 1.85979284
H   0.96698365 1.33999717 1.65553781
H   3.14329955 0.80044391 1.37983804
H   3.86953952 -0.86676513 1.18925989
H   4.21902545 0.37658267 -0.02636755
H   0.62646733 1.56013348 -2.00834466
H   0.28487843 3.03068497 -1.1881631
H   1.57131637 1.84695978 -0.70790459
H   -0.79242076 -1.80815789 0.70081445
H   -0.76607535 -0.22563994 2.91345317
H   1.14177593 -1.52184329 -2.85259264
H   -3.61331977 1.18479193 0.50171133
*
