! Engrad def2-TZVPPD wB97M-D3BJ 
%pal nprocs 8 end%pal nprocs 32 end 
 %tddft nroots 2 Iroot 1 
sf true 
end 
*xyz 0 3 
O   3.2706349199314 0.28739327842153 -0.91845623293981
O   -0.77182174819616 1.63070941404687 -2.32443886286458
O   0.39905053012959 -3.07478569659432 -0.22258236060785
O   -2.95348629445348 -1.85095087949326 -0.50171672688536
N   0.37512874885826 -1.37589955860295 1.28235062579491
N   -2.16123175408029 -0.25659201300911 0.9145406246129
N   1.53117412648701 -1.16872977287768 -0.73511676885589
N   -1.53207141123712 -0.26367997573594 -1.31560559636725
C   1.85963703244629 0.49823040781323 0.95065435398954
C   -0.98488486450089 1.64076603534922 0.03233655033838
C   0.4006461271868 0.02313573107643 1.54450564293091
C   -1.16917160479251 0.72949034889137 1.19420089622741
C   2.59066810851588 1.55202363942498 1.65449310556403
C   -0.74135895122648 3.07595577615291 0.2045076586646
C   2.2953095166553 -0.08154599787453 -0.28215657897882
C   -1.07143796022111 1.04916005050964 -1.30082125913131
C   0.73914453720313 -1.9539279268674 0.07585230241474
C   -2.26987327684201 -0.87838795015866 -0.30345764071848
H   0.47259880461239 0.15845259732089 2.62500161981936
H   -1.44467694773316 1.28398601184941 2.08646281174341
H   3.58695770392059 1.67526716466817 1.24095480301261
H   2.06179634349111 2.51721408330499 1.56839020316475
H   2.65042603025107 1.34508027464621 2.72754707762199
H   -1.60072522439381 3.55163620494301 0.68950578832129
H   0.10935086033861 3.24684294433314 0.87849449459874
H   -0.54815877900339 3.55262109194524 -0.75035390496693
H   -0.22374024138693 -1.98088973131623 1.8187696886194
H   -2.66755776331672 -0.70053022981204 1.65903724325286
H   1.87354974095968 -1.62355567729441 -1.56563584908793
H   -1.62327630960305 -0.69348964506073 -2.22266370928766
*
