! Engrad def2-TZVPPD wB97M-D3BJ 
%pal nprocs 8 end%pal nprocs 64 end 
%tddft Nroots 2 Iroot 2 
sf true 
end 
*xyz 0 3 
O   2.93340927 0.4439273 -1.01108504
O   -0.31416208 1.41349787 -2.34523429
O   0.17590087 -3.08175297 -0.3345311
O   -3.08148447 -1.56259146 -0.34546029
N   0.22541925 -1.50676686 1.18867061
N   -2.02311823 -0.07431212 1.0481474
N   1.58473688 -1.31307487 -0.64855429
N   -1.41041203 -0.23083424 -1.23346234
C   1.65425219 0.43507892 0.99304947
C   -0.72046241 1.61156715 -0.01163169
C   0.39584936 -0.1714031 1.58085145
C   -0.89350108 0.78853917 1.19401119
C   2.22645272 1.64084316 1.60129874
C   -0.56390233 3.0591306 0.08950043
C   2.11930271 -0.06925308 -0.27855279
C   -0.77353881 0.98062818 -1.32400175
C   0.65110269 -2.0278823 0.0366938
C   -2.22926868 -0.69403568 -0.19646857
H   0.55093308 -0.04624064 2.70197399
H   -1.03176846 1.49941757 2.04070354
H   3.1925708 1.77588737 1.29178766
H   1.66161189 2.48700373 1.30529296
H   2.16472172 1.55890934 2.68429579
H   -1.46342459 3.63536953 -0.22166129
H   -0.28367659 3.2563069 1.09970119
H   0.20514653 3.43033194 -0.49544195
H   -0.54901749 -1.98669028 1.6139969
H   -2.87998721 -0.00482921 1.60866244
H   1.88632255 -1.73578774 -1.55299065
H   -1.28084513 -0.89821466 -2.03176806
*
