! Engrad def2-TZVPPD wB97M-D3BJ 
%pal nprocs 8 end%pal nprocs 64 end 
%tddft 
 Iroot 2 Nroots 3 
sf true 
end 
*xyz 0 3 
O   2.97352304 -0.82685177 -2.09419701
O   -2.26658934 1.23337565 -1.6713791
O   -1.24765761 -2.3027301 -1.1927833
O   -2.76154776 0.70650907 2.78530757
N   0.19767813 -1.76453335 0.53623462
N   -0.59736191 0.98421523 2.0891819
N   0.86750696 -1.47225754 -1.64184164
N   -2.46675995 0.91654535 0.58407622
C   2.26913866 -0.62776343 0.15024501
C   -0.29317433 1.27809745 -0.25714267
C   1.03633011 -0.6592305 0.97062997
C   0.34151793 0.84539205 1.01223176
C   3.49584631 0.05194544 0.68242324
C   0.46407967 1.7391084 -1.4837556
C   2.10071486 -0.99176639 -1.25820877
C   -1.75838983 1.12797713 -0.59882829
C   -0.152361 -1.88083925 -0.8079372
C   -1.980915 0.87584124 1.91255451
H   1.34292885 -0.87606212 1.97619554
H   1.31731394 1.39584643 1.32007983
H   3.57785675 1.05456156 0.41118708
H   3.49869382 0.01628149 1.73718952
H   4.44190583 -0.33810331 0.36855281
H   0.20632957 1.19271588 -2.35591296
H   0.1461729 2.76951108 -1.65537077
H   1.53635099 1.57845006 -1.36037721
H   -0.57313263 -2.01834901 1.15571079
H   -0.27334905 0.87650168 3.01475521
H   0.76289896 -1.52328544 -2.64042285
H   -3.4463484 0.886043 0.49155793
*
