! Engrad def2-TZVPPD wB97M-D3BJ 
%pal nprocs 8 end%pal nprocs 64 end 
%tddft Nroots 2 Iroot 1 
sf true 
end 
*xyz 0 3 
O   2.89417169 1.09189908 -0.73355101
O   -0.39852787 0.84968917 -2.01966987
O   0.50552956 -2.74739449 -1.4566771
O   -2.62412741 -1.75750875 0.94930574
N   0.69248975 -2.02028894 0.69092721
N   -2.48795879 0.50972345 1.33201851
N   1.79514018 -0.91618139 -1.0386938
N   -1.62427553 -0.39992332 -0.59321672
C   1.72331861 0.10432004 1.06379152
C   -1.12618821 1.91005543 -0.03189987
C   0.99010733 -0.99443738 1.54866751
C   -1.84915819 1.69464359 1.08226206
C   2.14593583 1.16767833 1.97463821
C   -0.35781325 3.14170283 -0.34718629
C   2.21382447 0.16911634 -0.29933105
C   -0.94286649 0.76962164 -0.94736471
C   0.9760577 -1.97068693 -0.66746749
C   -2.26203629 -0.66371067 0.59709271
H   0.68612881 -1.10165493 2.53059787
H   -2.06527049 2.41869617 1.83907302
H   1.67790024 2.1249866 1.61770432
H   1.90011927 1.00547871 3.01737384
H   3.2190856 1.35203881 1.84784441
H   -0.66643408 3.50620909 -1.33775077
H   -0.49800625 3.89512431 0.42223261
H   0.70369807 2.94926627 -0.41618765
H   -0.03210555 -2.71644759 0.88500736
H   -2.94376941 0.33914137 2.21533349
H   1.99162433 -0.86469717 -2.03630618
H   -1.38798025 -1.23542939 -1.12971261
*
