7
Coordinates from ORCA-job orca E -153.921915376998
  O           1.20489537024269      0.79487103861438      0.67379039583805
  C           0.93562706706977     -0.36234600198542      0.44875564128362
  C          -0.37642517052727     -0.46106285359039     -0.31751191336240
  H           1.56066145349112     -1.21710540839147      0.74138247225339
  H          -0.19768592050968     -0.06533325631542     -1.31551703942527
  H          -0.78414152929036     -1.46742576894713     -0.41257312054221
  H          -1.09188827649123      0.18384128788444      0.18167356395482
