! Engrad def2-TZVPPD wB97M-D3BJ 
%pal nprocs 8 end%pal nprocs 64 end 
%tddft 
 Iroot 1 Nroots 3 
sf true 
end 
*xyz 0 3 
O   1.00691475 0.7437298 0.7820868
C   0.32366997 -0.36758866 0.3876355
C   -0.14531974 -0.24574502 -1.02077687
H   -0.68236769 -0.52991846 0.88834138
H   1.13634778 -1.2392356 0.39956162
H   -1.22990399 -0.2041234 -1.29252153
H   0.43305322 0.3524566 -1.73450159
*
