! Engrad def2-TZVPPD wB97M-D3BJ 
%pal nprocs 8 end%pal nprocs 64 end 
%tddft 
 Iroot 2 Nroots 3 
sf true 
end 
*xyz 0 3 
O   0.57594808 0.81824419 1.0182273
C   -0.04261213 0.05213883 0.0278231
C   0.79986791 -0.6990265 -0.93280789
H   -0.86046345 0.67313423 -0.35911148
H   -0.50668011 -0.72062451 0.46475248
H   0.23836989 -0.95758613 -1.82609011
H   1.48216169 -1.35700697 -0.41201466
*
