! Engrad def2-TZVPPD wB97M-D3BJ 
%pal nprocs 8 end%pal nprocs 32 end 
%tddft Nroots 2 Iroot 2 
sf true 
end 
*xyz 0 3 
O   0.42622166 1.41313651 -0.03310847
C   0.79309923 0.14308468 -0.15672196
C   -0.37212705 -0.85800638 0.23993707
H   -0.89474212 -0.5112196 1.11739281
H   1.65684237 -0.26584204 -0.58329684
H   0.15775056 -1.72315062 0.4070083
H   -1.03733001 -0.71624755 -0.55956114
*
