! Engrad def2-TZVPPD wB97M-D3BJ 
%pal nprocs 8 end%pal nprocs 32 end 
 %tddft nroots 2 Iroot 1 
sf true 
end 
*xyz 0 3 
O   2.85780023558126 1.06469306303171 -0.7177749569668
O   -0.4179655029564 0.84159844144994 -2.05060439849592
O   0.52952674382665 -2.75503247705106 -1.47628306382903
O   -2.61016787135074 -1.74952644110218 0.96465739124612
N   0.71461292566922 -2.0058438254777 0.66440952592083
N   -2.46927831734086 0.49288021567078 1.34099297153821
N   1.82828142999323 -0.92982546852146 -1.04265484682633
N   -1.61196055985153 -0.41222634469013 -0.59183753861898
C   1.7679544292325 0.0799660063728 1.14227651724152
C   -1.11594896132765 1.88406470477328 -0.03599723432356
C   1.04887530875773 -0.98348625186437 1.52258671613096
C   -1.89466081219634 1.71050376496896 1.03599152418026
C   2.13126935429952 1.20897287734382 2.05141844298528
C   -0.41869286693283 3.16118795324704 -0.37842762996194
C   2.21407784197622 0.15099078146584 -0.25038775488016
C   -0.99837629163375 0.77741124077463 -0.98987162154123
C   0.99346702441868 -1.96278105652631 -0.68440569054293
C   -2.25880406417709 -0.64736544935218 0.59868972403001
H   0.68483381055346 -1.09873382830437 2.5326220747076
H   -2.0787498630585 2.49810860462271 1.75075857380453
H   1.70972402589341 2.14389272254224 1.68540550052188
H   1.76378098791623 1.02865171943261 3.05911604398869
H   3.21050258214175 1.34279193035847 2.08789641254898
H   -0.77996738901735 3.55609872036226 -1.32593122583357
H   -0.57062207307786 3.90736611935873 0.39806481302593
H   0.64937534138319 2.98491992448426 -0.49893821731961
H   0.02509100476854 -2.68755923804473 0.93385943194967
H   -2.9643960992872 0.35808130404691 2.20365499398542
H   1.98923609357988 -0.82955172458586 -2.03314213203143
H   -1.4762184677834 -1.21524798878667 -1.19154434663437
*
