! Engrad def2-TZVPPD wB97M-D3BJ 
%pal nprocs 8 end%pal nprocs 32 end 
%tddft Nroots 2 Iroot 2 
sf true 
end 
*xyz 0 3 
O   0.55428876 1.09863009 0.2792104
C   0.58069148 -0.20350455 0.02239025
C   -0.76113314 -0.7319997 0.0175487
H   1.21963774 -0.81634765 0.71703067
H   1.04829631 -0.39716834 -0.9554095
H   -1.18732126 -1.27947419 -0.80405706
H   -1.43331035 -0.33458661 0.76501187
*
