7
Coordinates from ORCA-job orca E -153.884209431057
  O          -0.05051878786533      0.76085237494352     -0.00003568280191
  C           0.76259643788566     -0.47508603547787     -0.00000854807420
  C          -0.73719671647828     -0.39588164692683      0.00001815222596
  H           1.28269492694698     -0.65312897820892      0.92796189241092
  H           1.28270952469442     -0.65320117736239     -0.92795496371465
  H          -1.26901526596127     -0.65100992718189     -0.91327523962103
  H          -1.26907011922216     -0.65094460978562      0.91329438957491
