! Engrad wB97M-D3BJ def2-TZVPPD 
%pal nprocs 8 end%pal nprocs 16 end 
%tddft nroots 2 Iroot 2
 sf true 
end 
*xyz 0 3 
O   0.28540065643782 0.90279037925355 -0.00029388827294
C   0.72925228004606 -0.37686315432252 -4.029003479e-05
C   -0.67969327690036 -0.52268497534153 -5.73179444e-05
H   1.26752564323646 -0.69210631896648 0.89679511514174
H   1.2676714110841 -0.69235044204697 -0.89670109931654
H   -1.22288536608062 -0.58183172126445 -0.92782346141806
H   -1.22231782744591 -0.58073804462211 0.92812094184499
*
