! Engrad wB97M-D3BJ def2-TZVPPD 
%pal nprocs 8 end%pal nprocs 16 end 
%tddft nroots 2 Iroot 1
 sf true 
end 
*xyz 0 3 
O   0.61133788251504 0.98802597096459 -0.00029198789918
C   0.75643431840758 -0.34337962840791 -9.415442818e-05
C   -0.65156944830478 -0.58604926244647 0.00011758307237
H   1.26918195959404 -0.74326260740822 0.88534298953401
H   1.26894716551591 -0.74369238392932 -0.88547303958402
H   -1.20644480323888 -0.54008441222947 -0.92527077364434
H   -1.20614439737512 -0.53981206479313 0.92566938294935
*
