! Engrad def2-TZVPPD wB97M-D3BJ 
%pal nprocs 8 end%pal nprocs 64 end 
%tddft 
 Iroot 2 Nroots 3 
sf true 
end 
*xyz 0 3 
O   3.20694553 -0.6985081 -1.88687118
O   -2.23923746 1.77470065 -1.20883543
O   -1.08966861 -2.30575672 -2.1084187
O   -2.55457717 0.98441198 3.28690546
N   -0.3237928 -1.40510996 -0.1393482
N   -0.56952678 0.67374636 2.17126916
N   1.09964139 -1.5524715 -2.01469191
N   -2.40649635 1.16589008 0.93193529
C   2.02836456 -0.94478573 0.12772137
C   -0.21656011 1.28633496 -0.14963385
C   0.69468031 -0.87399753 0.72819326
C   0.29192474 0.60373253 1.05098805
C   3.2303796 -0.65045518 1.02911414
C   0.55918725 1.58324354 -1.41126196
C   2.18101161 -1.05376187 -1.30971418
C   -1.65176371 1.45201769 -0.18429067
C   -0.1469952 -1.86638736 -1.4470459
C   -1.91871215 0.94193052 2.22380348
H   0.61778447 -1.40175206 1.70746669
H   1.21681059 1.02111797 1.33380996
H   3.31981409 0.40068701 1.23033199
H   3.07403163 -1.18818122 1.90956592
H   4.22742221 -0.97041196 0.72243858
H   0.53440263 0.74609631 -2.06998893
H   -0.05181062 2.32920058 -1.93628783
H   1.62264449 1.74634475 -1.13656716
H   -1.21627315 -1.66356219 0.2840149
H   -0.15018322 0.72060972 3.08840772
H   1.19506704 -1.67174467 -3.03959759
H   -3.3141725 1.64131778 0.85066254
*
