! EnGrad wB97M-D3BJ def2-TZVPPD 
%pal nprocs 8 end%pal nprocs 16 end 
%tddft 
 sf true 
 nroots 2 Iroot 1 end 
*xyz 0 3 
O   0.07772357862703 0.83328810661002 -9.368995172e-05
C   0.69343753893028 -0.39660844549029 0.00011615651376
C   -0.72786630404429 -0.51534425736905 -0.00015342663738
H   1.24073159586715 -0.65348005682021 0.90498775695527
H   1.24047545748823 -0.65374029650741 -0.90488486395896
H   -1.26134706727597 -0.66648081662314 -0.9244863216086
H   -1.26095479959242 -0.66603423379992 0.92451438868763
*
