! Engrad def2-TZVPPD wB97M-D3BJ 
%pal nprocs 8 end%pal nprocs 64 end 
%tddft 
 Iroot 2 Nroots 3 
sf true 
end 
*xyz 0 3 
O   3.38236713 -1.08037399 -1.92410887
O   -2.18282823 1.89509421 -1.43370978
O   -1.06609808 -2.09548613 -1.71295705
O   -3.06257969 0.44365103 2.80607781
N   0.08259572 -1.64241553 0.20650123
N   -0.89081706 0.35683837 2.07731524
N   1.16679233 -1.52607959 -1.80254772
N   -2.66743715 0.9413448 0.58799378
C   2.22145364 -0.5347026 0.10425336
C   -0.34148353 1.33235476 -0.02715971
C   1.01712063 -0.73659356 0.88435304
C   0.19969318 0.66470203 1.17313285
C   3.42951464 -0.00271419 0.66230298
C   0.61395881 1.97773986 -1.00673227
C   2.35210865 -1.09066953 -1.25670269
C   -1.75764835 1.42152912 -0.36993796
C   -0.04963545 -1.72685202 -1.16574672
C   -2.2483886 0.61846006 1.92759797
H   1.27546211 -1.12623892 1.87193085
H   0.91227287 1.41626845 1.6678766
H   3.14118664 0.81724272 1.35955969
H   3.89103756 -0.8639388 1.18308547
H   4.19436103 0.32586539 0.0018405
H   0.62865817 1.60850771 -1.97891164
H   0.31187017 2.94311855 -1.2127106
H   1.61879033 1.88958861 -0.64507372
H   -0.80346277 -1.82067272 0.70373891
H   -0.71843648 -0.23902644 2.88508324
H   1.19232653 -1.51114051 -2.7836256
H   -3.63868084 1.20888098 0.49794852
*
