! Engrad def2-TZVPPD wB97M-D3BJ 
%pal nprocs 8 end%pal nprocs 32 end 
%tddft Nroots 2 Iroot 1 
sf true 
end 
*xyz 0 3 
O   0.01052629 0.79389862 0.00039332
C   0.72487673 -0.44245325 -0.00180894
C   -0.72889499 -0.45130557 -0.0007313
H   1.24396678 -0.64606607 0.93654582
H   1.26259129 -0.64461486 -0.92209685
H   -1.26822872 -0.64469804 -0.92637326
H   -1.27349976 -0.64918613 0.93123815
*
