! Engrad def2-TZVPPD wB97M-D3BJ 
%pal nprocs 8 end%pal nprocs 64 end 
%tddft 
 Iroot 2 Nroots 3 
sf true 
end 
*xyz 0 3 
O   2.80062982 -0.96819262 -2.43782438
O   -2.52359801 1.30891965 -1.32609433
O   -1.28639767 -2.3644551 -1.07381909
O   -2.38670814 0.87152788 3.23230867
N   0.13229902 -1.54832787 0.48272996
N   -0.44465462 0.89218463 2.08010409
N   0.75765317 -1.65658644 -1.7552788
N   -2.39066718 0.9505369 0.92805192
C   2.2061615 -0.53705164 -0.22726981
C   -0.38646853 1.37743404 -0.28372822
C   1.13402095 -0.47237941 0.78541851
C   0.37649345 1.00482885 0.93093132
C   3.55955795 -0.34099333 0.1840279
C   0.48525336 1.64292779 -1.49624901
C   1.93516096 -1.03863504 -1.54656277
C   -1.80324729 1.21722247 -0.33078288
C   -0.20207671 -1.9304439 -0.75797631
C   -1.7840647 0.92391263 2.19442246
H   1.50188521 -0.61705532 1.78335602
H   1.12889265 1.68074803 1.14280139
H   4.08440172 -1.37750425 0.33986599
H   4.16516752 0.04561445 -0.69580965
H   3.64623719 0.32621348 1.06415202
H   0.31106418 2.55111189 -2.06666035
H   1.52965585 1.60591216 -1.09614677
H   0.20246474 0.81596026 -2.24595677
H   -0.63913713 -1.61405484 1.16095305
H   0.08460844 1.03527871 2.97640261
H   0.54540927 -2.13553992 -2.60935473
H   -3.35270378 0.78607893 1.05616875
*
