! EnGrad wB97M-D3BJ def2-TZVPPD 
%pal nprocs 8 end%pal nprocs 16 end 
%tddft 
 sf true 
 nroots 2 Iroot 2 end 
*xyz 0 3 
O   0.52077847016948 1.34690959837547 0.09533517808071
C   0.55794039117686 0.19973883187248 -0.26404606846238
C   -0.42781480769468 -0.8300285565236 0.20552762563837
H   0.10149021849205 -1.64845597892652 0.69555377553053
H   1.33676610213953 -0.14667728676205 -0.96861416119938
H   -0.94623065274453 -1.25914520114116 -0.65307066128271
H   -1.14072972153871 -0.38074140689464 0.88931431169485
*
