! Engrad def2-TZVPPD wB97M-D3BJ 
%pal nprocs 8 end%pal nprocs 64 end 
%tddft 
 Iroot 2 Nroots 3 
sf true 
end 
*xyz 0 3 
O   0.43842981 1.1277049 0.6809139
C   0.41266525 -0.27237481 0.42822172
C   0.35841803 -0.73434117 -0.97911965
H   -0.44134879 -0.69004779 1.0954102
H   1.34610692 -0.71493928 0.8330209
H   -0.50752991 -1.28042132 -1.36130748
H   1.18086565 -0.37526495 -1.65578762
*
