! Engrad def2-TZVPPD wB97M-D3BJ 
%pal nprocs 8 end%pal nprocs 64 end 
%tddft 
 Iroot 1 Nroots 3 
sf true 
end 
*xyz 0 3 
O   1.1390449 -0.81189502 0.28289609
C   0.46120978 0.36819003 0.51290303
C   -0.45466205 0.69389573 -0.61623025
H   1.0520778 1.25137005 0.75337127
H   -0.16284819 0.06676998 1.39319494
H   -0.38051291 1.749963 -1.17910045
H   -1.19336775 0.03553238 -1.03375977
*
