! Engrad def2-TZVPPD wB97M-D3BJ 
%pal nprocs 8 end%pal nprocs 64 end 
%tddft 
 Iroot 1 Nroots 3 
sf true 
end 
*xyz 0 3 
O   2.85507641 -0.30919959 -1.89745673
O   -1.69708412 1.27109851 -2.03617056
O   -0.75833521 -2.83669073 -0.98566577
O   -3.2035434 -0.25441479 1.95255905
N   0.07756058 -1.54842898 0.77997843
N   -1.17251421 0.81303718 1.89328655
N   1.04808164 -1.49384186 -1.347254
N   -2.3363469 0.35787862 -0.06398168
C   2.06975057 -0.20473994 0.38008874
C   -0.16744655 1.46153933 -0.24406373
C   0.91650888 -0.44664757 1.26857052
C   0.11268798 0.97366424 1.17382776
C   3.19762488 0.59965605 0.94346409
C   0.84610278 2.31437604 -0.94506311
C   2.09024415 -0.63517532 -1.01598711
C   -1.41492072 1.05497209 -0.84683994
C   0.00454108 -2.02803389 -0.51127794
C   -2.28883159 0.29222789 1.34992377
H   1.21535841 -0.54322078 2.2529683
H   0.70691476 1.70112125 1.74118469
H   3.3856348 0.30619483 1.9546664
H   4.19837844 0.49258762 0.34800896
H   3.06835999 1.68582438 0.86953864
H   0.40005116 2.85914454 -1.72688591
H   1.13014754 3.17558016 -0.35007022
H   1.59398543 1.69960765 -1.40132548
H   -0.74331655 -1.72580006 1.34646984
H   -1.2058017 0.86436624 2.92848813
H   1.18507746 -1.93640265 -2.18149445
H   -2.92934044 -0.29585333 -0.54388953
*
