! Engrad def2-TZVPPD wB97M-D3BJ 
%pal nprocs 8 end%pal nprocs 64 end 
%tddft 
 Iroot 1 Nroots 3 
sf true 
end 
*xyz 0 3 
O   2.67487883 -0.80901321 -2.18106038
O   -1.65687213 1.59846813 -1.85354946
O   -1.44500771 -2.47060665 -0.88448854
O   -2.92450513 0.37590568 2.4052649
N   -0.17001981 -1.51586171 0.69267238
N   -0.67254606 1.03093317 2.1101286
N   0.65538144 -1.66677154 -1.47075826
N   -2.22957007 0.70017215 0.26826482
C   2.18307251 -0.66187869 0.09772274
C   -0.03268027 1.49007067 -0.23173987
C   0.97756341 -0.61347985 1.00322853
C   0.39321684 0.84770676 1.10562056
C   3.4637503 -0.17436347 0.50864696
C   0.92913817 2.24969915 -0.98714692
C   1.92914732 -1.09533576 -1.26993243
C   -1.3723555 1.30605237 -0.6600964
C   -0.42114404 -1.94174256 -0.54563164
C   -1.98861862 0.64315954 1.65125062
H   1.16820619 -0.8856992 2.09556636
H   1.16027513 1.49719322 1.4601389
H   4.16671263 -0.29474445 -0.2407009
H   3.43237847 0.8442193 0.81396458
H   3.78165818 -0.72395217 1.41884822
H   1.53949434 1.4560138 -1.54608351
H   0.42460629 2.70175269 -1.79495689
H   1.51290313 2.96478591 -0.451278
H   -0.80292502 -1.76980829 1.47049519
H   -0.57015731 0.60850153 3.00782625
H   0.30795258 -1.75949879 -2.43243345
H   -3.21009227 0.57134587 0.0447955
*
