7
Coordinates from ORCA-job orca E -153.884407839730
  O           0.05421280492301      0.81693982830338     -0.00007679825690
  C           0.70325031691878     -0.40797224666788      0.00025164691362
  C          -0.72771609645645     -0.49228771296121     -0.00031591732614
  H           1.24705166464227     -0.65381802490738      0.90834214156568
  H           1.24650703020534     -0.65472425815085     -0.90801274609584
  H          -1.26093805554204     -0.66302702444349     -0.92256220889381
  H          -1.26016766469091     -0.66351056117256      0.92237388209338
