! EnGrad wB97M-D3BJ def2-TZVPPD 
%pal nprocs 8 end%pal nprocs 16 end 
%tddft 
 sf true 
 nroots 2 Iroot 1 end 
*xyz 0 3 
O   0.49601013141641 1.31404225806497 0.08458536803654
C   0.58709347736292 0.17129524460388 -0.28724645637829
C   -0.43259521174432 -0.82072929596635 0.20663129536284
H   0.05897692714284 -1.63536319829085 0.74131294446109
H   1.38524704391741 -0.16397889913846 -0.97021787686443
H   -0.96068213062553 -1.2730542076099 -0.63441778080886
H   -1.13185023746973 -0.31061190166328 0.8593525061911
*
