! Engrad def2-TZVPPD wB97M-D3BJ 
%pal nprocs 8 end%pal nprocs 64 end 
%tddft 
 Iroot 2 Nroots 3 
sf true 
end 
*xyz 0 3 
O   2.88956191 -0.31756108 -1.75999235
O   -1.57001825 1.18936145 -2.09847381
O   -0.74742908 -2.81501205 -0.94773932
O   -3.20136135 -0.2217326 1.86727775
N   0.06953567 -1.61431433 0.78984767
N   -1.26781802 0.97058607 1.87484526
N   1.06503513 -1.51213183 -1.29099581
N   -2.36725056 0.52551527 -0.12564894
C   2.14902073 -0.2515517 0.44590378
C   -0.18343544 1.35492857 -0.20950008
C   0.86926842 -0.45410064 1.20106687
C   0.07426879 0.90891641 1.20457745
C   3.29726819 0.56325567 0.88030668
C   0.72671797 2.27076972 -0.91345259
C   2.0999477 -0.66555857 -0.9513711
C   -1.37714436 1.0524915 -0.89140425
C   0.04513639 -2.05546584 -0.47298426
C   -2.32318003 0.37377398 1.25549795
H   1.00303501 -0.55228116 2.22723916
H   0.6868954 1.63022256 1.69120843
H   3.78182325 -0.0024085 1.69261091
H   4.00031073 0.88047576 -0.00439936
H   2.97455996 1.53678573 1.29383553
H   0.31686636 2.68329747 -1.77943212
H   0.70685901 3.19506907 -0.32192691
H   1.66332522 1.83378465 -1.12177791
H   -0.67960284 -1.87596156 1.37901119
H   -1.3112544 0.68683705 2.85875432
H   0.88025635 -1.67454929 -2.30950722
H   -3.29490608 0.50098495 -0.56673557
*
