! Engrad def2-TZVPPD wB97M-D3BJ 
%pal nprocs 8 end%pal nprocs 64 end 
%tddft 
 Iroot 1 Nroots 3 
sf true 
end 
*xyz 0 3 
O   3.26161307 0.8885599 -0.1033369
O   -0.83043264 0.62620577 -2.70414182
O   0.6337635 -2.75595981 -1.01373835
O   -3.50430585 -1.3642755 0.51688988
N   0.23083682 -1.33331297 0.79043541
N   -2.1046353 0.34162011 1.08015841
N   1.8986997 -0.82754455 -0.67933877
N   -2.09899017 -0.59546369 -1.08267181
C   1.5455868 0.49368419 1.32834816
C   -0.51428334 1.21405379 -0.51757574
C   0.26609567 -0.09232221 1.42733364
C   -0.82469558 0.97396909 0.8991644
C   2.13664801 1.41798197 2.28481318
C   0.44210344 2.23481795 -0.84481087
C   2.28680896 0.23426297 0.17136486
C   -1.14821986 0.39103189 -1.49939117
C   0.86819703 -1.74463309 -0.42200447
C   -2.63664321 -0.58019445 0.2452574
H   -0.02141103 -0.30680113 2.45163721
H   -0.82614422 1.88571889 1.55931005
H   1.45836547 2.07033285 2.79308441
H   2.50078848 0.81565651 3.07076293
H   2.91154606 2.07372492 2.0100376
H   -0.08470711 2.93833153 -1.42427707
H   0.66081266 2.66184057 0.10150974
H   1.3394594 1.81389906 -1.35444117
H   -0.42783141 -2.01441277 1.17436419
H   -2.50747674 0.24565576 2.00609722
H   2.48765409 -0.98643573 -1.47610853
H   -2.63666998 -1.11690193 -1.81228462
*
