! Engrad def2-TZVPPD wB97M-D3BJ 
%pal nprocs 8 end%pal nprocs 64 end 
%tddft 
Iroot 0 Nroots 3 
sf true 
end 
*xyz 0 3 
O   2.698125064571979 1.04898724930618 -0.546840117025879
O   -0.5881088179115586 0.9575782116434715 -2.3409866568323046
O   0.5150852874446257 -2.8265181414569183 -1.2779626729895368
O   -2.732596948573855 -1.5414290977250114 0.690150208134162
N   0.5121896842953252 -1.9569687425071371 0.7697736572960263
N   -2.002034460356423 0.41965002879645225 1.3394434653460479
N   1.6321308319504537 -0.9004014892687525 -0.8807492656235023
N   -1.6190090755470075 -0.29819794423761437 -0.7976145309085055
C   1.4846685174803813 0.1675883829240604 1.191034366527092
C   -0.7602999157729173 1.778254623862286 -0.14957783833185834
C   0.7144252894078525 -0.8828765007547819 1.5901590372617194
C   -1.1609752916835427 1.44467175055909 1.1072511811976902
C   1.9207943225651851 1.1623729454193856 2.1228113947091156
C   -0.36422816360381255 3.1103243550540958 -0.46275076621555084
C   2.0062233476297493 0.16690002243081525 -0.12987325945157782
C   -0.958091038861861 0.8277089252390433 -1.2073402388663934
C   0.860776014996826 -1.9577013391739666 -0.5306999991930168
C   -2.1493686597613784 -0.5349576870888146 0.4227386997119413
H   0.580592957623378 -1.1027686348001984 2.63378337386951
H   -1.1764345402608591 2.19076096669344 1.876853867265524
H   1.7952019007870788 2.1552792112567025 1.698583716324026
H   1.3999546846664799 1.1744738051675068 3.0802423107930985
H   2.968115814115836 1.1412262564910138 2.415098723526153
H   -1.146837575570334 3.5294598868656117 -1.0954833851156545
H   -0.16410734319891654 3.8131744452155463 0.3360618660477676
H   0.5362376759207722 3.1279610850225317 -1.0736652069142512
H   -0.1314454672613553 -2.679672101394137 1.025297436771296
H   -2.369682241795312 0.2607718730105339 2.253017629575042
H   1.8905027416991818 -0.8733184676829786 -1.8527992870584336
H   -1.739204594995991 -1.0073338788675215 -1.5013577098297466
*
