! Engrad def2-TZVPPD wB97M-D3BJ 
%pal nprocs 8 end%pal nprocs 64 end 
%tddft 
 Iroot 1 Nroots 3 
sf true 
end 
*xyz 0 3 
O   2.27389346 -0.7965067 -2.45332297
O   -1.55387044 1.61246531 -1.6752257
O   -1.30285463 -2.70990191 -0.73525844
O   -2.99024827 0.81078226 2.38304163
N   0.06767522 -1.6088632 0.69377601
N   -0.7223849 0.73884098 2.09104448
N   0.37898907 -1.46046707 -1.63181827
N   -2.10906902 0.62231701 0.22511163
C   2.01418318 -0.71017923 -0.05458231
C   0.13502005 1.48324903 0.01209176
C   1.05427491 -0.71509007 1.06432159
C   0.49703068 0.80813691 1.27908836
C   3.37863631 -0.28147559 0.2349301
C   1.11488378 2.30914443 -0.62394871
C   1.63347862 -0.95266166 -1.45528777
C   -1.18939797 1.31128592 -0.59562185
C   -0.39034341 -1.94972383 -0.6104842
C   -2.03462106 0.72381138 1.61133024
H   1.57293121 -0.93117427 1.99880476
H   1.24128885 1.35368077 1.83641447
H   3.9939397 -0.10453372 -0.61948584
H   3.38310731 0.694961 0.7650505
H   3.80653996 -0.95666329 0.9038691
H   0.82711136 2.59116117 -1.63370414
H   1.38982607 3.28694594 -0.07140889
H   2.08543745 1.73851612 -0.6897675
H   -0.58123999 -1.90971504 1.35429265
H   -0.70282089 1.00441722 3.0779307
H   0.15355683 -1.79378667 -2.52035789
H   -3.02887606 0.5764875 -0.15091909
*
