! Engrad wB97M-D3BJ def2-TZVPPD 
%pal nprocs 8 end%pal nprocs 16 end 
%tddft nroots 2 Iroot 1
 sf true 
end 
*xyz 0 3 
O   0.99561363297406 1.17158907505222 0.0927846530848
C   0.88721283543079 0.03957795329939 -0.31268700251503
C   -0.31212664316167 -0.71314041746958 0.21424687157662
H   -0.00082018610902 -1.61485349818655 0.74494214585241
H   1.59893175408743 -0.42391058964326 -1.01275287084294
H   -0.95356492281263 -1.04268030277758 -0.60525531009471
H   -0.85852112865554 -0.05510232720766 0.87872151293885
*
