! Engrad def2-TZVPPD wB97M-D3BJ 
%pal nprocs 8 end%pal nprocs 64 end 
%tddft 
 Iroot 1 Nroots 3 
sf true 
end 
*xyz 0 3 
O   1.32790661 0.64252519 0.53726851
C   0.06858552 0.40977785 0.1955921
C   -0.18410998 -0.95063045 -0.50199235
H   -0.20488756 1.09955074 -0.59227541
H   -0.53971508 0.55304076 1.08331075
H   -0.96927418 -0.88678578 -1.2277187
H   0.60349804 -1.61781172 -0.94013188
*
