! Engrad def2-TZVPPD wB97M-D3BJ 
%pal nprocs 8 end%pal nprocs 64 end 
%tddft Nroots 2 Iroot 1 
sf true 
end 
*xyz 0 3 
O   2.82647487 1.20180363 -0.42356147
O   -0.60142395 0.88829555 -2.30868517
O   0.9173794 -2.7874108 -1.53724968
O   -2.80602827 -1.64377178 0.80416906
N   0.51468111 -1.91746829 0.54540669
N   -2.28663406 0.50528758 1.42318478
N   1.9278574 -0.84901887 -0.90155727
N   -1.86091962 -0.28260872 -0.79467124
C   1.59892225 0.03709412 1.29741722
C   -0.84906675 1.73451071 -0.12168962
C   0.76144322 -1.08682425 1.60958668
C   -1.50453199 1.57389755 1.12241625
C   1.87634063 1.18870245 2.28173602
C   -0.15635466 3.04244138 -0.42532254
C   2.16596726 0.22022072 -0.06422804
C   -1.02970171 0.78065733 -1.16892182
C   1.08033772 -1.89110241 -0.69415787
C   -2.34149499 -0.59167323 0.4765344
H   0.20947343 -1.08249449 2.60253824
H   -1.68649652 2.42930089 1.76593037
H   2.0633913 2.11713033 1.61889817
H   1.01928734 1.43400929 2.94716761
H   2.6920605 0.92310611 2.92236819
H   -0.66830552 3.5303764 -1.26915805
H   -0.20753522 3.7147787 0.42610466
H   0.86280486 2.86596647 -0.72178875
H   -0.13670592 -2.71572522 0.66464399
H   -2.60765033 0.36418277 2.42236009
H   2.05399563 -0.66411333 -1.86031065
H   -2.06336337 -1.08720537 -1.3965248
*
