! Engrad def2-TZVPPD wB97M-D3BJ 
%pal nprocs 8 end%pal nprocs 64 end 
%tddft Nroots 2 Iroot 2 
sf true 
end 
*xyz 0 3 
O   2.884504 1.10149799 -0.83775594
O   -0.55283178 0.9096638 -2.03509247
O   1.32900018 -3.18735968 -1.18800294
O   -3.21279599 -1.58546779 0.58629355
N   0.81545597 -2.04084386 0.70259465
N   -2.47292853 0.41256351 1.46353018
N   1.94640366 -1.00438314 -1.02034473
N   -1.90344043 -0.29124904 -0.69186335
C   1.84257462 0.17588569 1.07169115
C   -1.24077732 1.88521889 -0.04368508
C   1.00662966 -0.89582706 1.49840995
C   -1.96688313 1.69411655 1.16981465
C   2.35553733 1.26816385 1.94665725
C   -0.51417115 3.18379328 -0.13250702
C   2.26520564 0.23715162 -0.28282087
C   -1.18222915 0.85271909 -1.02504429
C   1.39629365 -2.16632484 -0.5723785
C   -2.6163131 -0.57896458 0.43224563
H   0.49188519 -0.85735236 2.42059037
H   -2.02887147 2.39479276 1.98216524
H   1.64563152 1.98514782 2.55829043
H   3.03279219 0.79258111 2.67408804
H   2.99783472 1.99813593 1.4553932
H   -1.13306966 4.00642495 0.28726611
H   0.46583294 3.21488554 0.51421827
H   0.03747771 3.22999531 -1.07748926
H   0.25449807 -2.84081666 1.01574231
H   -2.99846531 0.26888758 2.32358175
H   2.48158793 -0.97655696 -1.86439038
H   -1.8950436 -1.02308238 -1.33422446
*
