! Engrad def2-TZVPPD wB97M-D3BJ 
%pal nprocs 8 end%pal nprocs 64 end 
%tddft 
 Iroot 2 Nroots 3 
sf true 
end 
*xyz 0 3 
O   -0.5556181 0.71300959 0.08149774
C   0.69557139 0.2554508 0.51122602
C   1.17411556 -0.85237442 -0.37903146
H   0.66473015 0.20984957 1.6116726
H   1.56210708 0.90081477 0.38437548
H   0.67714086 -1.81082868 -0.29761462
H   1.87079017 -0.69501706 -1.23114566
*
