! Engrad def2-TZVPPD wB97M-D3BJ 
%pal nprocs 8 end%pal nprocs 32 end 
 %tddft nroots 2 Iroot 1 
sf true 
end 
*xyz 0 3 
O   2.57971933616606 1.35508942796352 -0.84699980131112
O   -0.1527726303854 0.09674435759715 -1.8347924209632
O   1.28317818806531 -2.9530014230898 -0.91498569752602
O   -4.25016588671191 -0.30744962091242 0.08760231935788
N   0.49061458959068 -1.65125129110621 0.76104360231471
N   -2.4754068454957 1.12966978917294 0.48441001057815
N   2.13723278348019 -0.85850349733658 -0.68809595818656
N   -2.19804544883439 -0.49032991759924 -0.98170236766089
C   1.40358865782116 0.61985917091039 1.07987493561494
C   -1.00433953270479 1.11872962978241 0.23547566340009
C   0.60733067438366 -0.51961404732436 1.62414880186472
C   -0.36968076489748 0.63309343624397 1.5005581519943
C   2.24707717293426 1.45372335541304 2.01043479212655
C   -0.55562335763967 2.51541985470109 -0.17767309372555
C   2.02392696024251 0.45347852880221 -0.2685461925619
C   -0.99897596838159 0.17116928703149 -0.98567910828831
C   1.30092156203867 -1.90598364353353 -0.31119098131668
C   -3.12174790011914 0.07224343664748 -0.09058179837266
H   0.80603052043591 -0.79020588725166 2.65615430363172
H   -0.50972749608647 1.25989702545125 2.36797083820197
H   2.29732495113871 2.48135024049674 1.6597072916217
H   1.8345277273768 1.44684204015738 3.01655485694467
H   3.26764176263559 1.07170101426429 2.05427543410031
H   -1.21230545963357 2.89512683586089 -0.95632990004535
H   -0.60973430270458 3.18448902893979 0.67990266250717
H   0.46406577727883 2.49969128509864 -0.54674264374452
H   -0.08241205341116 -2.42896882819676 1.03601995670365
H   -2.84894719499523 1.48698542547567 1.34618404833281
H   2.57074337213839 -0.99136650314192 -1.58834573597663
H   -2.47143919372571 -1.13362851051793 -1.70405196961594
*
