7
Coordinates from ORCA-job orca E -153.928438749589
  O           0.75297511915636      1.35595786203740      0.05751783504082
  C           0.54612919932516      0.19359890082226      0.26864565543290
  C          -0.45588896472060     -0.78882761722296     -0.25298237119537
  H           1.21618195401642     -0.30998328274565      1.00289339263411
  H           0.09312850372336     -1.61834322772954     -0.69845971711797
  H          -1.14539919582850     -0.36277001468655     -0.97735855072583
  H          -1.00492661567219     -1.18803262047496      0.59974375593134
