7
Coordinates from ORCA-job orca E -153.844435742544
  O           0.39528840486320      0.93858810190458     -0.00035002635657
  C           0.73740113818427     -0.36344694583807     -0.00016962662893
  C          -0.66801227411835     -0.55104848819001     -0.00019090196044
  H           1.26976139917956     -0.70852442312272      0.89217361346027
  H           1.27021745934313     -0.70896949650443     -0.89207427741608
  H          -1.21555898620871     -0.56246400074213     -0.92792600339021
  H          -1.21397829746363     -0.56086896207479      0.92853722229196
