7
Coordinates from ORCA-job orca E -153.930057586280
  O           0.49601013141641      1.31404225806497      0.08458536803654
  C           0.58709347736292      0.17129524460388     -0.28724645637829
  C          -0.43259521174432     -0.82072929596635      0.20663129536284
  H           0.05897692714284     -1.63536319829085      0.74131294446109
  H           1.38524704391741     -0.16397889913846     -0.97021787686443
  H          -0.96068213062553     -1.27305420760990     -0.63441778080886
  H          -1.13185023746973     -0.31061190166328      0.85935250619110
