! Engrad def2-TZVPPD wB97M-D3BJ 
%pal nprocs 8 end%pal nprocs 64 end 
%tddft 
 Iroot 2 Nroots 3 
sf true 
end 
*xyz 0 3 
O   1.23905542 -0.71871311 4.541e-05
C   0.39544599 0.19146363 0.59676097
C   -0.50611363 0.78767245 -0.3750332
H   0.99529681 1.04315433 1.03605324
H   -0.28427771 -0.37329515 1.28407297
H   -0.76570413 1.8401152 -0.45893496
H   -0.81557627 0.13876362 -1.31736131
*
