! Engrad def2-TZVPPD wB97M-D3BJ 
%pal nprocs 8 end%pal nprocs 64 end 
%tddft 
 Iroot 2 Nroots 3 
sf true 
end 
*xyz 0 3 
O   3.44001106 -1.20887051 -1.93691857
O   -2.16862106 1.88332458 -1.34541914
O   -1.04576663 -1.99658866 -1.78957952
O   -3.09846694 0.50348256 2.83205413
N   0.06163205 -1.70475045 0.24470781
N   -0.90771684 0.3305109 2.13045692
N   1.11659676 -1.50784311 -1.84626862
N   -2.56377848 1.02870367 0.70692222
C   2.22607732 -0.50664411 0.0409419
C   -0.34930406 1.30125566 -0.02250073
C   0.96226681 -0.69404538 0.77600569
C   0.13662541 0.56014193 1.1192534
C   3.47062837 0.11119281 0.72539376
C   0.55715906 1.92917752 -1.08409828
C   2.3515094 -1.07562219 -1.34207993
C   -1.71267541 1.40041302 -0.29705397
C   -0.03334396 -1.77051081 -1.14502878
C   -2.25969068 0.55656095 1.95008544
H   1.34911174 -1.09506105 1.70157465
H   0.7870445 1.28889859 1.68372737
H   3.16544289 0.93541484 1.39407155
H   4.15826676 -0.60556428 1.20352899
H   4.12114062 0.57971332 -0.01400269
H   0.32769724 1.51117262 -2.02488023
H   0.31235654 2.90484961 -1.30049737
H   1.56009639 1.82157513 -0.84218785
H   -0.84716087 -1.55283063 0.61040884
H   -0.64140266 0.25640841 3.0967399
H   1.20009804 -1.76941679 -2.8668246
H   -3.53674218 1.17496701 0.56852916
*
