! Engrad def2-TZVPPD wB97M-D3BJ 
%pal nprocs 8 end%pal nprocs 64 end 
%tddft 
Iroot 0 Nroots 3 
sf true 
end 
*xyz 0 3 
O   2.5149342304960056 1.2122971417085089 -0.41033601268258496
O   -0.7222434458542769 0.8496450000448832 -2.357283313886575
O   0.5297454209191755 -2.7014478966146576 -1.538583962087879
O   -2.4507250189938037 -1.5493869646290643 1.067038350054696
N   0.629257949768122 -2.1230874692149744 0.6444726597696869
N   -1.9228081894611702 0.6089248289773793 1.4282242799846288
N   1.6165737004158849 -0.7939701026004279 -0.9356982571166333
N   -1.631185451575444 -0.31276492228833613 -0.649799524760672
C   1.5180014901307093 -0.022697029009684653 1.3210451583956948
C   -0.9036660019463865 1.9347042247744024 -0.2620472539925977
C   0.8757436164986557 -1.1671225839792778 1.5939009289070176
C   -1.321266727580963 1.754963042107427 0.9974568968389915
C   1.8351507975477903 0.9948261336908473 2.3410393746727074
C   -0.322909595881804 3.1939504227976085 -0.7525764896960102
C   1.940204511100881 0.21437106703985478 -0.045260981295149626
C   -1.0601814883428222 0.8305430501455568 -1.198179245510114
C   0.899516966453238 -1.9346494704386892 -0.6833738379177989
C   -2.0358771320309836 -0.49798367235544316 0.6431075659820882
H   0.5779846132768348 -1.4348110603127713 2.5940932538770007
H   -1.268721655609979 2.5431333417698467 1.7294192147693241
H   1.4341929827817446 1.9613848269860346 2.0475242557605946
H   1.4295932113175271 0.7401091104999209 3.3160585256292836
H   2.9039136850442766 1.1436913422479034 2.46553867215445
H   -0.9022025102874789 3.5573899291457907 -1.597177531695923
H   -0.28100082694505235 3.9691839446043513 0.004315535807501565
H   0.6900821755707427 3.0315063621744764 -1.11131211849038
H   0.005333236017979725 -2.883772864276696 0.8458079821623397
H   -2.210795627099625 0.5066321020557243 2.3822875626206335
H   1.7857788591583872 -0.6001492587968612 -1.9107847915471037
H   -1.6998237748881986 -1.110412576253694 -1.2643168967072254
*
