! EnGrad wB97M-D3BJ def2-TZVPPD 
%pal nprocs 8 end%pal nprocs 16 end 
%tddft 
 sf true 
 nroots 2 Iroot 1 end 
*xyz 0 3 
O   0.11752071138583 0.86187996803731 -0.0002180463466
C   0.67938461695582 -0.37927868172675 8.822556948e-05
C   -0.72871854779624 -0.55424822419526 -0.00010342789171
H   1.23144411243875 -0.65169155764305 0.9003308296558
H   1.2311814041045 -0.65180570969096 -0.90031978434739
H   -1.26451481774095 -0.67228286432388 -0.92677169874772
H   -1.26409747934773 -0.6709729304574 0.92699390210813
*
