! Engrad def2-TZVPPD wB97M-D3BJ 
%pal nprocs 8 end%pal nprocs 64 end 
%tddft 
 Iroot 2 Nroots 3 
sf true 
end 
*xyz 0 3 
O   1.1675093 0.84843977 0.45046803
C   0.16014761 -0.11572114 0.52829926
C   -0.15772139 -0.61149946 -0.81960192
H   -0.68497463 0.42182865 1.05588128
H   0.40823033 -0.94912845 1.23862983
H   -1.12665229 -0.41703133 -1.27754267
H   0.58420601 -0.92071308 -1.50144735
*
