! Engrad def2-TZVPPD wB97M-D3BJ 
%pal nprocs 8 end%pal nprocs 64 end 
%tddft 
 Iroot 1 Nroots 3 
sf true 
end 
*xyz 0 3 
O   0.90916718 -0.88706786 0.52564396
C   0.61972136 0.06930947 -0.40578869
C   -0.37775001 1.10144192 0.13046141
H   0.04149528 -0.40530284 -1.22199055
H   1.51638785 0.58131335 -0.93596802
H   -0.25987238 2.06530874 -0.16099682
H   -1.27060898 0.63238754 0.38992891
*
