! Engrad def2-TZVPPD wB97M-D3BJ 
%pal nprocs 8 end%pal nprocs 64 end 
%tddft 
 Iroot 2 Nroots 3 
sf true 
end 
*xyz 0 3 
O   3.41376645 0.87859983 0.07282182
O   -0.78992976 0.69278243 -2.67971594
O   1.15246914 -2.91019019 -0.69870152
O   -3.64673928 -1.41743 0.07126473
N   0.23836593 -1.47323256 0.77658732
N   -2.1789301 0.06242368 0.96158296
N   1.94467693 -0.72960143 -0.62466567
N   -2.2002154 -0.4224656 -1.33675302
C   1.50992594 0.56649702 1.38591407
C   -0.65200812 1.28581928 -0.43767529
C   0.23509467 -0.21275522 1.47870856
C   -0.91995405 0.72159536 0.91223329
C   1.79420748 1.66723484 2.3035414
C   0.31585399 2.40320102 -0.65929091
C   2.40917102 0.25170255 0.28998641
C   -1.22505889 0.58639878 -1.56715898
C   1.19188162 -1.81206639 -0.2189729
C   -2.75738669 -0.5863379 -0.1125945
H   -0.15304883 -0.37979515 2.47284208
H   -1.02972267 1.52945069 1.60751724
H   1.8338847 1.37841687 3.32722499
H   2.75460715 2.15692692 2.03422276
H   0.98475791 2.35764034 2.44397637
H   0.03558646 3.17554945 -1.49254142
H   0.46870659 2.92548938 0.23543991
H   1.30241106 2.03182354 -0.90714034
H   -0.2256754 -2.30534456 1.04406626
H   -2.3854262 -0.22946098 1.87000349
H   2.71335839 -0.97031329 -1.27150822
H   -2.60785617 -0.86009458 -2.15893822
*
