! Engrad def2-TZVPPD wB97M-D3BJ 
%pal nprocs 8 end%pal nprocs 64 end 
%tddft Nroots 2 Iroot 2 
sf true 
end 
*xyz 0 3 
O   2.50683283 1.22723449 -0.47599791
O   -0.66693728 0.83679482 -2.29624944
O   0.53362826 -2.71173038 -1.57794852
O   -2.37918781 -1.5931008 1.14530787
N   0.68711117 -2.16067106 0.62766775
N   -2.02186571 0.62773406 1.44941528
N   1.63965296 -0.80770192 -0.98470332
N   -1.59676856 -0.3440926 -0.59547945
C   1.60270106 -0.02260027 1.28891194
C   -0.98448511 1.97062098 -0.23412637
C   0.94837805 -1.2371999 1.59247798
C   -1.48832347 1.82215133 0.99122298
C   1.86926826 1.01072125 2.30806505
C   -0.34817448 3.2266137 -0.72962641
C   1.95230552 0.20177649 -0.07472517
C   -1.04874865 0.82352996 -1.15205102
C   0.93465908 -1.95608181 -0.72277115
C   -2.02397219 -0.52450233 0.69737937
H   0.63886102 -1.45356715 2.59101743
H   -1.52274975 2.64777573 1.68541895
H   1.39600276 1.95356084 2.01766159
H   1.50276914 0.72471564 3.29809748
H   2.93212998 1.22845325 2.35571415
H   -0.8435745 3.55454406 -1.65128768
H   -0.38866382 4.00553363 0.01559488
H   0.69224044 3.03585092 -0.97031382
H   0.04346252 -2.90193389 0.83331282
H   -2.33655859 0.53801188 2.39254475
H   1.79418532 -0.60510896 -1.96093292
H   -1.61227538 -1.16732176 -1.18836454
*
