! EnGrad wB97M-D3BJ def2-TZVPPD 
%pal nprocs 8 end%pal nprocs 16 end 
%tddft 
 sf true 
 nroots 2 Iroot 1 end 
*xyz 0 3 
O   0.80148135404247 1.37069719035808 -0.01064872552352
C   0.53332526173127 0.22448876994731 0.21657582387186
C   -0.46162684140726 -0.80003334798058 -0.23543269029423
H   1.18372529703953 -0.27171450105887 0.97913928875177
H   0.10595486548664 -1.64801268568006 -0.61717217346186
H   -1.16867112888063 -0.45349820280797 -0.98584599997435
H   -0.99198880801201 -1.14032722277792 0.65338447663032
*
