! EnGrad wB97M-D3BJ def2-TZVPPD 
%pal nprocs 8 end%pal nprocs 16 end 
%tddft 
 sf true 
 nroots 2 Iroot 2 end 
*xyz 0 3 
O   0.77657129973161 1.37483273539055 -0.00814087574233
C   0.53197663629137 0.22362785829022 0.22160703701064
C   -0.45842213215457 -0.80298575156038 -0.23471050213382
H   1.19514869231436 -0.26616786806253 0.97568608359414
H   0.11131497340591 -1.64505813857893 -0.6261442436333
H   -1.16751903563144 -0.44921219058928 -0.979714512525
H   -0.98687043395724 -1.15343664488966 0.65141701342968
*
