! Engrad def2-TZVPPD wB97M-D3BJ 
%pal nprocs 8 end%pal nprocs 64 end 
%tddft Nroots 2 Iroot 1 
sf true 
end 
*xyz 0 3 
O   2.60480002 1.15844362 -0.55205113
O   -0.59627642 0.84334457 -2.27749277
O   0.70260275 -2.8661756 -1.4560658
O   -2.58047713 -1.6481634 0.97031753
N   0.58499467 -2.05438757 0.66762308
N   -1.97185515 0.49477692 1.44500377
N   1.71211366 -0.88161642 -0.96192478
N   -1.64301956 -0.35616725 -0.66079091
C   1.33805782 0.15434759 1.17862256
C   -0.77598972 1.83236046 -0.13594879
C   0.73265209 -0.98996397 1.5286313
C   -1.33135638 1.65491045 1.10315678
C   1.60912594 1.27152471 2.13436344
C   -0.08078481 3.08370812 -0.53876834
C   1.94424692 0.22457213 -0.1497773
C   -0.97144826 0.78985009 -1.11986138
C   0.97539462 -2.00447435 -0.65111368
C   -2.10813855 -0.58694091 0.60594179
H   0.31539179 -1.14358465 2.51389163
H   -1.26500644 2.40097878 1.85808836
H   1.37626767 2.24373124 1.68610562
H   1.02083528 1.15058196 3.0443042
H   2.67296922 1.2985978 2.39552623
H   -0.55784157 3.51625691 -1.42083705
H   -0.08255246 3.81799645 0.26514593
H   0.96256394 2.87354978 -0.82279309
H   -0.03505456 -2.81362998 0.9068738
H   -2.34256117 0.38059242 2.37094764
H   2.00872562 -0.79976382 -1.91734606
H   -1.72748494 -1.11772161 -1.31363953
*
