! Engrad wB97M-D3BJ def2-TZVPPD 
%pal nprocs 8 end%pal nprocs 16 end 
%tddft nroots 2 Iroot 2
 sf true 
end 
*xyz 0 3 
O   0.13462619115752 0.84240167735806 -8.494216885e-05
C   0.72412125965529 -0.40241432177803 2.920581365e-05
C   -0.70147080153682 -0.4763150114944 -4.730259547e-05
H   1.26349757612092 -0.67173423268479 0.90567513067184
H   1.26350314602848 -0.6717710239241 -0.90560891733834
H   -1.23858626756427 -0.61722527439708 -0.92411246355956
H   -1.23847871730564 -0.61679695276098 0.92414928917673
*
