! Engrad def2-TZVPPD wB97M-D3BJ 
%pal nprocs 8 end%pal nprocs 64 end 
%tddft 
 Iroot 1 Nroots 3 
sf true 
end 
*xyz 0 3 
O   1.23849265 0.71987923 0.51769231
C   -0.02675714 0.33627108 0.1865835
C   0.0213609 -0.95207973 -0.55277478
H   -0.55338187 1.18716254 -0.37493372
H   -0.64524902 0.23399596 1.0957273
H   -0.81269193 -1.66573684 -0.55097531
H   1.02258543 -1.09936133 -0.86365937
*
