! Engrad def2-TZVPPD wB97M-D3BJ 
%pal nprocs 8 end%pal nprocs 64 end 
%tddft 
 Iroot 1 Nroots 3 
sf true 
end 
*xyz 0 3 
O   0.65916614 0.37905818 -0.98384764
C   0.3867856 -0.46860393 0.01209987
C   0.2062579 0.28317955 1.27261094
H   1.34863729 -1.23400833 0.26240989
H   -0.46173574 -1.03654323 -0.14663696
H   0.72153945 1.29660897 1.49266692
H   -0.45769494 -0.10981066 1.96289334
*
