7
Coordinates from ORCA-job orca E -153.842448028126
  O           0.22106265848978      0.93529929370115     -0.00124259109557
  C           0.65211202236855     -0.33953102261428     -0.00024147232399
  C          -0.73337615390703     -0.64207014542134      0.00026055932930
  H           1.20933477342964     -0.64459068214614      0.89179045751274
  H           1.20955613424711     -0.64550195988155     -0.89178669781283
  H          -1.27870928199814     -0.69242436038988     -0.92764585036569
  H          -1.27778015262991     -0.68958112324796      0.92886559475602
