! Engrad def2-TZVPPD wB97M-D3BJ 
%pal nprocs 8 end%pal nprocs 64 end 
%tddft 
 Iroot 1 Nroots 3 
sf true 
end 
*xyz 0 3 
O   3.01893004 -0.94788021 -1.86102279
O   -1.74171311 1.1179233 -2.02005686
O   -1.02058796 -2.66108083 -0.77255236
O   -3.05204019 0.09334052 2.19367644
N   0.09336041 -1.52949246 0.77773678
N   -0.97206819 0.93922045 1.98523372
N   0.81292038 -1.47197646 -1.44897044
N   -2.43927937 0.76113073 0.12045985
C   2.13962851 -0.43106641 0.25228993
C   -0.23176257 1.56273318 -0.23366809
C   0.91736029 -0.3083396 1.09560454
C   0.17488847 1.12321844 1.08870404
C   3.41679932 0.17482823 0.63905711
C   0.81858746 2.24488187 -1.0609711
C   2.0418206 -0.94887807 -1.14304332
C   -1.51505067 1.10635993 -0.83137675
C   -0.10207735 -1.95483109 -0.51236868
C   -2.23348033 0.59040704 1.48741945
H   1.21827796 -0.23148964 2.16468469
H   0.82415215 1.8483963 1.59121463
H   4.28546938 -0.40253207 0.30061586
H   3.65676456 1.16164031 0.19310516
H   3.49731295 0.31859514 1.72153618
H   1.31900768 1.51441111 -1.64266147
H   0.50055464 2.99760706 -1.76601071
H   1.50577705 2.70477776 -0.32596306
H   -0.61344493 -1.85577607 1.31403154
H   -0.80700376 0.32250143 2.8023585
H   0.64941243 -1.87494585 -2.3430113
H   -3.30366572 0.41399139 -0.13563563
*
