! Engrad def2-TZVPPD wB97M-D3BJ 
%pal nprocs 8 end%pal nprocs 64 end 
%tddft 
Iroot 0 Nroots 3 
sf true 
end 
*xyz 0 3 
O   2.7844183721668334 0.9638129365534216 -0.6109764077484587
O   -0.522944208590778 1.0113644258628158 -2.329284931939488
O   0.5082459109064633 -2.8844653924785413 -1.1456372325798978
O   -2.8659631175193834 -1.527552414438179 0.5007813431355905
N   0.45483176856160545 -1.872059418559867 0.8290571535812439
N   -2.037131833183627 0.33226549919086795 1.2927816366188694
N   1.638973746172656 -0.9511873965412446 -0.8566794729982135
N   -1.6120692122732279 -0.2917091446122228 -0.8696741535126008
C   1.4677816268010042 0.262110339951594 1.124567340006556
C   -0.6875035903647297 1.705211671987206 -0.09618697329070262
C   0.6354580391177895 -0.7412961649453842 1.5885298979794065
C   -1.0846507479619736 1.2814032732581595 1.161454905950206
C   1.9607566731109716 1.2560535327529352 2.0214483344394747
C   -0.3790020204372452 3.0715444138095522 -0.3318699320978082
C   2.0373115772882135 0.14342647937272227 -0.1686676320035654
C   -0.9082344970823515 0.8268939698692271 -1.2098181847053882
C   0.8410192592511927 -1.968024745340755 -0.45347555450858384
C   -2.204370936184961 -0.5536404359832338 0.3172043040311805
H   0.5839818959676869 -0.9368505786471704 2.6462147547816226
H   -1.1312241910591276 2.012748582021276 1.946042652844139
H   1.9844994577160906 2.2257502825878808 1.5309347056131937
H   1.395623607680787 1.398882112077623 2.943013245608756
H   2.976476925024936 1.1363383434043717 2.392723971331212
H   -1.253148822999082 3.5028963909868622 -0.8229785588996619
H   -0.10352124990119056 3.7237897510653055 0.4872838494649547
H   0.4321882700404706 3.1836033078961194 -1.048257348926815
H   -0.1977777837275641 -2.575779147889873 1.1120286164898325
H   -2.444646447876433 0.14138257174735888 2.182726828503639
H   1.9398004223275207 -1.009973880208224 -1.8143278373534244
H   -1.756578892972556 -0.9519391647506683 -1.6143593198152633
*
