! Engrad wB97M-D3BJ def2-TZVPPD 
%pal nprocs 8 end%pal nprocs 16 end 
%tddft nroots 2 Iroot 1
 sf true 
end 
*xyz 0 3 
O   1.09370340547873 1.16601130670045 -0.0592942113705
C   0.89609787648542 0.03278339573568 0.29743535569836
C   -0.30745705474782 -0.70682731614679 -0.21894308911778
H   1.57550886166576 -0.48411568927931 0.99674408900319
H   0.00376608595357 -1.61364520674243 -0.73985064199484
H   -0.86436123218239 -0.0608801275371 -0.88869643429907
H   -0.93869449663243 -1.02409745537704 0.61260493208064
*
