! EnGrad wB97M-D3BJ def2-TZVPPD 
%pal nprocs 8 end%pal nprocs 16 end 
%tddft 
 sf true 
 nroots 2 Iroot 1 end 
*xyz 0 3 
O   -0.05924163238638 0.75846556792912 -3.471658508e-05
C   0.76850995608389 -0.48300439332803 -9.49881394e-06
C   -0.73872822505863 -0.38872364213842 1.865207576e-05
H   1.28637876922032 -0.65253606340211 0.93001425883008
H   1.286398141137 -0.65260305757444 -0.93000831953725
H   -1.27052801128851 -0.65003803359934 -0.91260930807657
H   -1.2705889977077 -0.64996037788676 0.912628932107
*
