! Engrad def2-TZVPPD wB97M-D3BJ 
%pal nprocs 8 end%pal nprocs 64 end 
%tddft 
 Iroot 2 Nroots 3 
sf true 
end 
*xyz 0 3 
O   -0.16321791 1.04234366 0.42091192
C   0.50214486 -0.18677697 0.48351894
C   0.98785331 -0.72827647 -0.7590987
H   -0.15611574 -0.89100511 1.1159274
H   1.29889809 0.00906541 1.15485736
H   0.5046917 -1.68592867 -1.00859578
H   1.60758513 -0.13123584 -1.40361106
*
