! Engrad def2-TZVPPD wB97M-D3BJ 
%pal nprocs 8 end%pal nprocs 64 end 
%tddft 
 Iroot 1 Nroots 3 
sf true 
end 
*xyz 0 3 
O   3.04172868 -0.70567368 -1.64265221
O   -1.43336739 1.42072593 -2.1742825
O   -0.93066275 -2.6382192 -0.72638592
O   -3.49594609 0.08592282 1.64822937
N   0.02296854 -1.43807208 0.8740113
N   -1.32149506 0.7596957 1.86848754
N   1.04861581 -1.7131294 -1.20774108
N   -2.29359851 0.49878189 -0.20386329
C   2.11777892 -0.28122886 0.40989556
C   -0.11066797 1.4121005 -0.25080405
C   0.84566181 -0.26203572 1.20346089
C   -0.0543063 1.00373389 1.16615486
C   3.33637936 0.4699083 0.68437365
C   0.98816819 2.15180506 -0.81352739
C   2.1238844 -0.98917331 -0.81828272
C   -1.28712947 1.1253009 -0.94770706
C   -0.01570768 -1.95874287 -0.40092959
C   -2.40107817 0.390827 1.18760743
H   1.15258366 -0.2957586 2.27617568
H   0.54909134 1.69151522 1.83705673
H   3.71466626 0.86695159 -0.23944754
H   3.29792794 1.20202496 1.44619899
H   4.0662442 -0.25796602 1.03327652
H   0.68165642 2.92250642 -1.52999051
H   1.75452338 2.5665284 -0.17066369
H   1.51057449 1.42454571 -1.49800554
H   -0.72941512 -1.66322987 1.42251838
H   -1.43880009 1.05130131 2.82498179
H   0.95577982 -2.12857776 -2.07512649
H   -3.10784345 0.21737857 -0.67055528
*
