! Engrad def2-TZVPPD wB97M-D3BJ 
%pal nprocs 8 end%pal nprocs 64 end 
%tddft 
 Iroot 2 Nroots 3 
sf true 
end 
*xyz 0 3 
O   1.24638245 -0.72967256 0.19677227
C   0.67182188 0.50340543 -0.03218501
C   -0.82123207 0.4336115 0.03528588
H   1.05082701 1.0144985 -0.91418289
H   1.04583058 1.30885994 0.70721003
H   -1.36287882 0.70331981 0.96756233
H   -1.3461037 0.1710202 -0.83721347
*
