30
Coordinates from ORCA-job orca E -908.935700454138
  O           2.48546684204191      1.25621355827181     -0.33356758221550
  O          -0.79782463235310      0.82227441787029     -2.40164276500932
  O           0.55371699555844     -2.66011621858420     -1.58800032253405
  O          -2.43606375492028     -1.54474884800828      1.11599744869648
  N           0.61420324320920     -2.13401996461926      0.62588401855173
  N          -1.84839612299856      0.63095270071042      1.43502733063328
  N           1.60855211039679     -0.74842841162862     -0.92271115225602
  N          -1.67514601764061     -0.31399311921403     -0.65104601925831
  C           1.46489859371839     -0.03663932663212      1.37371723606660
  C          -0.88178282114814      1.94157695452142     -0.30846787649472
  C           0.84824635383789     -1.20139774203344      1.60807907022554
  C          -1.26253196257641      1.78489803620924      0.96410975322870
  C           1.74440868742430      0.98812870187983      2.42376572789237
  C          -0.22598121027719      3.17281942741558     -0.84235540643142
  C           1.90954050075483      0.24423512501972      0.00795223993655
  C          -1.09768278245054      0.82322664782234     -1.22902267847058
  C           0.90086457721879     -1.91080132633743     -0.70322817822353
  C          -2.02605199341996     -0.49438337722723      0.66569692724271
  H           0.48711465450984     -1.47441441248077      2.58808275197048
  H          -1.13672535004714      2.56545895818864      1.69878975889291
  H           1.34299289019696      1.95565278928295      2.12722792032983
  H           1.30827671377153      0.69671589424298      3.37699751520791
  H           2.81595530515632      1.12495399692773      2.55757697355677
  H          -0.77586461236232      3.55716436807198     -1.69880504562128
  H          -0.17592726438756      3.94441488586593     -0.07746396054301
  H           0.78486117327659      2.94390692336838     -1.17363795587428
  H          -0.00696546243225     -2.90417629599037      0.80470070433088
  H          -2.09251661501771      0.53412667938468      2.40344362539314
  H           1.79649448403034     -0.52970675992400     -1.88940352439972
  H          -1.77353252307040     -1.11889426237417     -1.25309653482416
