! Engrad def2-TZVPPD wB97M-D3BJ 
%pal nprocs 8 end%pal nprocs 64 end 
%tddft 
 Iroot 1 Nroots 3 
sf true 
end 
*xyz 0 3 
O   3.71439864 0.23262146 0.47057625
O   -0.9706106 0.75505286 -2.86987639
O   0.6579915 -2.40929465 -1.25681879
O   -3.74084207 -1.0369808 0.20739678
N   0.20474682 -1.45097192 0.7376939
N   -2.16088908 0.39930804 0.95947527
N   1.98397786 -0.78772124 -0.47696407
N   -2.17649239 -0.36076961 -1.31303626
C   1.57777166 0.20203054 1.61642784
C   -0.46285336 1.22709682 -0.57985464
C   0.20394504 -0.23068852 1.50310028
C   -0.78790605 0.8345457 0.83450444
C   1.90979651 1.28791094 2.64403553
C   0.49461849 2.22877394 -0.93440101
C   2.53523352 -0.08348933 0.57066293
C   -1.13182228 0.53146869 -1.65302274
C   0.88235189 -1.56730854 -0.4543403
C   -2.78015876 -0.39589037 -0.01792416
H   -0.25559076 -0.42755669 2.49275775
H   -0.78167776 1.76432033 1.34776367
H   1.4897124 1.20527728 3.56830198
H   2.97040412 1.57171061 2.71199298
H   1.41856071 2.24098574 2.17343316
H   1.54610842 1.84309207 -0.77519018
H   0.40191657 2.43622269 -2.00283499
H   0.2628172 3.23542321 -0.37005928
H   -0.65571401 -1.95347074 0.6746715
H   -2.5602927 0.41585812 1.88013503
H   2.59904757 -0.96212269 -1.20500732
H   -2.5289674 -0.92858402 -2.07462364
*
