! Engrad def2-TZVPPD wB97M-D3BJ 
%pal nprocs 8 end%pal nprocs 64 end 
%tddft 
Iroot 1 Nroots 3 
sf true 
end 
*xyz 0 3 
O   3.024663136804629 0.6936062269343956 -0.7885938955265599
O   -0.3301552678473791 1.1724221099361158 -2.278616024866613
O   0.48902637119645176 -3.0406104772958935 -0.7315635723457672
O   -3.2333706485472087 -1.4478238708361768 -0.0700239791280133
N   0.2852466018883287 -1.6081413849796613 0.9943892250505734
N   -2.1120285147208526 0.0768769165314202 1.150040864094435
N   1.6632195130814487 -1.1063109870677483 -0.7929735122641836
N   -1.5908463202519336 -0.2718626610998616 -1.0856468074610954
C   1.4223525669599515 0.5526541067950588 0.9138617449723483
C   -0.4756072254438498 1.5136578019789728 0.06159847594985847
C   0.40893314403536135 -0.3136776082265854 1.5854505287446479
C   -0.8834555361898454 0.7657544857382284 1.3117030107990606
C   2.0936834058383247 1.5845678697166603 1.721483166513532
C   -0.4395597352578108 2.9801568048997478 0.03211194367659005
C   2.124901642764885 0.0769896680358236 -0.2754046644386112
C   -0.7617173842426013 0.8241344955197282 -1.207755181607153
C   0.7782807360770827 -1.9923298596524917 -0.21138972829683605
C   -2.3718295185589278 -0.6137318058785844 0.00841606662309087
H   0.5899936229152986 -0.42730056563112245 2.653401986446959
H   -0.9793549980849992 1.4577013318284961 2.1431475695149613
H   2.512831793371537 2.3537155005946913 1.082157077712062
H   1.433456616835491 2.0510589201942553 2.447059995678515
H   2.920884348023621 1.163974372026739 2.2930236643706188
H   -1.4617657895965557 3.363284630771835 0.019167720283062843
H   0.06589605617769043 3.421148148039029 0.8841826364010138
H   0.050204124861778145 3.330255003574064 -0.8702393757062821
H   -0.3927347692206326 -2.2496485019242387 1.3647332826528595
H   -2.649358066503222 -0.21158550684023109 1.946710059927078
H   2.0722490995632223 -1.4150786051115325 -1.6595509520368625
H   -1.801439005929268 -0.7688565585712033 -1.9362813257332714
*
