! Engrad def2-TZVPPD wB97M-D3BJ 
%pal nprocs 8 end%pal nprocs 32 end 
%tddft Nroots 2 Iroot 2 
sf true 
end 
*xyz 0 3 
O   0.50858649 1.36847923 0.08700918
C   0.58106364 0.13042043 -0.30247494
C   -0.43520003 -0.8299313 0.21155743
H   0.0753107 -1.65959997 0.72810957
H   1.36654773 -0.1398529 -0.9569832
H   -0.97729892 -1.24438533 -0.64179249
H   -1.13550382 -0.33948992 0.85654236
*
