! Engrad def2-TZVPPD wB97M-D3BJ 
%pal nprocs 8 end%pal nprocs 64 end 
%tddft Nroots 2 Iroot 2 
sf true 
end 
*xyz 0 3 
O   2.38185211 -0.32672599 -1.11138702
O   -0.13295727 2.77970597 -2.44299434
O   0.21586368 -3.82786185 0.82951573
O   -2.07826174 -1.05678604 -1.44207922
N   0.39467061 -1.94325706 2.05966036
N   -1.28610306 -0.19350436 0.5169265
N   1.08164952 -1.98864611 -0.20134886
N   -0.74348582 0.78625321 -1.52853039
C   1.21797238 0.2200162 0.89922656
C   -0.56380697 2.71728219 -0.07641061
C   0.63275691 -0.55890992 2.18787865
C   -0.18025752 0.37723563 1.22738732
C   2.21564962 1.27479829 1.21604315
C   -1.69904571 3.54015892 0.42596425
C   1.62573027 -0.67276726 -0.23602081
C   -0.31913136 2.14057873 -1.41064096
C   0.5112724 -2.65729018 0.91149656
C   -1.4324871 -0.22591309 -0.84902197
H   0.96061247 -0.18386423 3.11909948
H   -0.38819158 1.25138186 1.81274766
H   2.49299875 1.83903535 0.3195195
H   1.91742028 1.9888711 1.99278327
H   3.09575637 0.74811775 1.57317345
H   -2.65234742 2.97131489 0.41964256
H   -1.55637787 3.95455181 1.41102541
H   -1.78355827 4.35712886 -0.30403679
H   -0.08402827 -2.48941972 2.78419014
H   -1.73189273 -0.99085655 0.99474888
H   1.20013716 -2.61294865 -1.01368136
H   -0.83865727 0.62212671 -2.499702
*
